version 2
run General-0-20241128-21:42:13-22245
attr configname General
attr datetime 20241128-21:42:13
attr experiment General
attr inifile omnetpp.ini
attr iterationvars ""
attr iterationvarsf ""
attr measurement ""
attr network can4cqf.simulations.CAN2TSN.Can2tsn
attr processid 22245
attr repetition 0
attr replication #0
attr resultdir results
attr runnumber 0
attr seedset 0
param **.gateway.bufferingDelay 1us
param **.gateway.transformDelay 2us
param **.canBus1.bandwidth 2Mbps
param **.canBus2.bandwidth 2Mbps
param **.addressTableFile "\"addressTable.txt\""
param **.scheduler.tick 100ns
param **.scheduler.numPeriods 1
param **.scheduler.period[0].cycle_ticks sec_to_tick(4s)
param **.scheduler.period[0].offset_ticks sec_to_tick(0ms)
param **.scheduler.oscillator.max_drift 200ppm
param **.scheduler.oscillator.drift_change uniform(-50ppm,50ppm)
param **.precission 500ns
param **.gateway1.can[*].bufferIn[*].idIncomingFrames "\"1\""
param **.gateway1.can[*].bufferIn[*].destination_gates "\"sinkApp[0].dataIn\""
param **.gateway1.tsn[*].phy[*].mac.address "\"0A-00-00-00-00-07\""
param **.gateway1.tsn[*].bgIn.destination_gates "\"gatewayApp.in\""
param **.gateway1.tsn[*].gatewayApp.buffers "\"bgOut\""
param **.gateway1.tsn[*].phy[*].shaper.transmissionSelectionAlgorithm[*].typename "\"IEEE8021QbvSelectionAlgorithm\""
param **.gateway2.can[*].bufferIn[*].idIncomingFrames "\"1\""
param **.gateway2.can[*].bufferIn[*].destination_gates "\"sinkApp[0].dataIn\""
param **.gateway2.tsn[*].phy[*].mac.address "\"0A-00-00-00-00-08\""
param **.gateway2.tsn[*].bgIn.destination_gates "\"gatewayApp.in\""
param **.gateway2.tsn[*].gatewayApp.buffers "\"bgOut\""
param **.gateway2.countOfCanBusses 1
param **.gateway2.countOfEthernetPorts 1
param **.gateway2.tsn[*].phy[*].taggedVIDs "\"0,1\""
param **.gateway2.tsn[*].phy[*].untaggedVID 0
param **.gateway2.tsn[*].phy[*].shaper.transmissionSelectionAlgorithm[*].typename "\"IEEE8021QbvSelectionAlgorithm\""
param **.switch1.phy[0].mac.address "\"0A-00-00-00-00-01\""
param **.switch1.phy[1].mac.address "\"0A-00-00-00-00-02\""
param **.switch1.phy[*].shaper.transmissionSelectionAlgorithm[*].typename "\"IEEE8021QbvSelectionAlgorithm\""
param **.switch1.phy[0].untaggedVID 0
param **.switch1.phy[0].taggedVIDs "\"0,1\""
param **.switch1.phy[1].untaggedVID 0
param **.switch1.phy[1].taggedVIDs "\"0,1\""
param **.switch2.phy[0].mac.address "\"0A-00-00-00-00-03\""
param **.switch2.phy[1].mac.address "\"0A-00-00-00-00-04\""
param **.switch2.phy[*].shaper.transmissionSelectionAlgorithm[*].typename "\"IEEE8021QbvSelectionAlgorithm\""
param **.switch2.phy[0].untaggedVID 0
param **.switch2.phy[0].taggedVIDs "\"0,1\""
param **.switch2.phy[1].untaggedVID 0
param **.switch2.phy[1].taggedVIDs "\"0,1\""
param **.version "\"2.0B\""
param **.canNode1.numSourceApps 1
param **.canNode1.sourceApp[0].idDataFrames "\"1\""
param **.canNode1.sourceApp[0].periodicityDataFrames "\"0.01\""
param **.canNode1.sourceApp[0].initialDataFrameOffset "\"0\""
param **.canNode1.sourceApp[0].dataLengthDataFrames "\"64\""
param **.canNode11.numSinkApps 1
param **.canNode11.numInputBuffer 1
param **.canNode11.bufferIn[0].destination_gates "\"sinkApp[0].dataIn\""
param **.canNode11.bufferIn[0].idIncomingFrames "\"1\""
param **.transmissionSelectionAlgorithm[*].typename "\"IEEE8021QbvSelectionAlgorithm\""
param **.configXML "xmldoc(\"GatewayConfig.xml\")"
param **.gateway.buffering[*].typename "\"CircularRotationBuffer\""
param **.gateway.transform[*].typename "\"VarGatewayTransformation\""
param **.gateway.buffering[*].timeout 100us
param **.gateway.buffering[*].lamda 0.6

vector 0 Can2tsn.gateway1.tsn[0].phy[0].shaper.transmissionSelection qPcp0Bytes:vector(packetBytes) ETV
attr interpolationmode none
attr title "Received Bytes, vector(packetBytes)"
attr unit B
vector 1 Can2tsn.gateway1.tsn[0].phy[0].shaper.transmissionSelection qPcp0Latency:vector ETV
attr interpolationmode none
attr title "End-to-end latency, vector"
attr unit s
vector 2 Can2tsn.gateway1.tsn[0].phy[0].shaper.transmissionSelection qPcp1Bytes:vector(packetBytes) ETV
attr interpolationmode none
attr title "Received Bytes, vector(packetBytes)"
attr unit B
vector 3 Can2tsn.gateway1.tsn[0].phy[0].shaper.transmissionSelection qPcp1Latency:vector ETV
attr interpolationmode none
attr title "End-to-end latency, vector"
attr unit s
vector 4 Can2tsn.gateway1.tsn[0].phy[0].shaper.transmissionSelection qPcp2Bytes:vector(packetBytes) ETV
attr interpolationmode none
attr title "Received Bytes, vector(packetBytes)"
attr unit B
vector 5 Can2tsn.gateway1.tsn[0].phy[0].shaper.transmissionSelection qPcp2Latency:vector ETV
attr interpolationmode none
attr title "End-to-end latency, vector"
attr unit s
vector 6 Can2tsn.gateway1.tsn[0].phy[0].shaper.transmissionSelection qPcp3Bytes:vector(packetBytes) ETV
attr interpolationmode none
attr title "Received Bytes, vector(packetBytes)"
attr unit B
vector 7 Can2tsn.gateway1.tsn[0].phy[0].shaper.transmissionSelection qPcp3Latency:vector ETV
attr interpolationmode none
attr title "End-to-end latency, vector"
attr unit s
vector 8 Can2tsn.gateway1.tsn[0].phy[0].shaper.transmissionSelection qPcp4Bytes:vector(packetBytes) ETV
attr interpolationmode none
attr title "Received Bytes, vector(packetBytes)"
attr unit B
vector 9 Can2tsn.gateway1.tsn[0].phy[0].shaper.transmissionSelection qPcp4Latency:vector ETV
attr interpolationmode none
attr title "End-to-end latency, vector"
attr unit s
vector 10 Can2tsn.gateway1.tsn[0].phy[0].shaper.transmissionSelection qPcp5Bytes:vector(packetBytes) ETV
attr interpolationmode none
attr title "Received Bytes, vector(packetBytes)"
attr unit B
vector 11 Can2tsn.gateway1.tsn[0].phy[0].shaper.transmissionSelection qPcp5Latency:vector ETV
attr interpolationmode none
attr title "End-to-end latency, vector"
attr unit s
vector 12 Can2tsn.gateway1.tsn[0].phy[0].shaper.transmissionSelection qPcp6Bytes:vector(packetBytes) ETV
attr interpolationmode none
attr title "Received Bytes, vector(packetBytes)"
attr unit B
vector 13 Can2tsn.gateway1.tsn[0].phy[0].shaper.transmissionSelection qPcp6Latency:vector ETV
attr interpolationmode none
attr title "End-to-end latency, vector"
attr unit s
vector 14 Can2tsn.gateway1.tsn[0].phy[0].shaper.transmissionSelection qPcp7Bytes:vector(packetBytes) ETV
attr interpolationmode none
attr title "Received Bytes, vector(packetBytes)"
attr unit B
vector 15 Can2tsn.gateway1.tsn[0].phy[0].shaper.transmissionSelection qPcp7Latency:vector ETV
attr interpolationmode none
attr title "End-to-end latency, vector"
attr unit s
vector 16 Can2tsn.switch1.phy[0].shaper.transmissionSelection qPcp0Bytes:vector(packetBytes) ETV
attr interpolationmode none
attr title "Received Bytes, vector(packetBytes)"
attr unit B
vector 17 Can2tsn.switch1.phy[0].shaper.transmissionSelection qPcp0Latency:vector ETV
attr interpolationmode none
attr title "End-to-end latency, vector"
attr unit s
vector 18 Can2tsn.switch1.phy[0].shaper.transmissionSelection qPcp1Bytes:vector(packetBytes) ETV
attr interpolationmode none
attr title "Received Bytes, vector(packetBytes)"
attr unit B
vector 19 Can2tsn.switch1.phy[0].shaper.transmissionSelection qPcp1Latency:vector ETV
attr interpolationmode none
attr title "End-to-end latency, vector"
attr unit s
vector 20 Can2tsn.switch1.phy[0].shaper.transmissionSelection qPcp2Bytes:vector(packetBytes) ETV
attr interpolationmode none
attr title "Received Bytes, vector(packetBytes)"
attr unit B
vector 21 Can2tsn.switch1.phy[0].shaper.transmissionSelection qPcp2Latency:vector ETV
attr interpolationmode none
attr title "End-to-end latency, vector"
attr unit s
vector 22 Can2tsn.switch1.phy[0].shaper.transmissionSelection qPcp3Bytes:vector(packetBytes) ETV
attr interpolationmode none
attr title "Received Bytes, vector(packetBytes)"
attr unit B
vector 23 Can2tsn.switch1.phy[0].shaper.transmissionSelection qPcp3Latency:vector ETV
attr interpolationmode none
attr title "End-to-end latency, vector"
attr unit s
vector 24 Can2tsn.switch1.phy[0].shaper.transmissionSelection qPcp4Bytes:vector(packetBytes) ETV
attr interpolationmode none
attr title "Received Bytes, vector(packetBytes)"
attr unit B
vector 25 Can2tsn.switch1.phy[0].shaper.transmissionSelection qPcp4Latency:vector ETV
attr interpolationmode none
attr title "End-to-end latency, vector"
attr unit s
vector 26 Can2tsn.switch1.phy[0].shaper.transmissionSelection qPcp5Bytes:vector(packetBytes) ETV
attr interpolationmode none
attr title "Received Bytes, vector(packetBytes)"
attr unit B
vector 27 Can2tsn.switch1.phy[0].shaper.transmissionSelection qPcp5Latency:vector ETV
attr interpolationmode none
attr title "End-to-end latency, vector"
attr unit s
vector 28 Can2tsn.switch1.phy[0].shaper.transmissionSelection qPcp6Bytes:vector(packetBytes) ETV
attr interpolationmode none
attr title "Received Bytes, vector(packetBytes)"
attr unit B
vector 29 Can2tsn.switch1.phy[0].shaper.transmissionSelection qPcp6Latency:vector ETV
attr interpolationmode none
attr title "End-to-end latency, vector"
attr unit s
vector 30 Can2tsn.switch1.phy[0].shaper.transmissionSelection qPcp7Bytes:vector(packetBytes) ETV
attr interpolationmode none
attr title "Received Bytes, vector(packetBytes)"
attr unit B
vector 31 Can2tsn.switch1.phy[0].shaper.transmissionSelection qPcp7Latency:vector ETV
attr interpolationmode none
attr title "End-to-end latency, vector"
attr unit s
vector 32 Can2tsn.switch1.phy[1].shaper.transmissionSelection qPcp0Bytes:vector(packetBytes) ETV
attr interpolationmode none
attr title "Received Bytes, vector(packetBytes)"
attr unit B
vector 33 Can2tsn.switch1.phy[1].shaper.transmissionSelection qPcp0Latency:vector ETV
attr interpolationmode none
attr title "End-to-end latency, vector"
attr unit s
vector 34 Can2tsn.switch1.phy[1].shaper.transmissionSelection qPcp1Bytes:vector(packetBytes) ETV
attr interpolationmode none
attr title "Received Bytes, vector(packetBytes)"
attr unit B
vector 35 Can2tsn.switch1.phy[1].shaper.transmissionSelection qPcp1Latency:vector ETV
attr interpolationmode none
attr title "End-to-end latency, vector"
attr unit s
vector 36 Can2tsn.switch1.phy[1].shaper.transmissionSelection qPcp2Bytes:vector(packetBytes) ETV
attr interpolationmode none
attr title "Received Bytes, vector(packetBytes)"
attr unit B
vector 37 Can2tsn.switch1.phy[1].shaper.transmissionSelection qPcp2Latency:vector ETV
attr interpolationmode none
attr title "End-to-end latency, vector"
attr unit s
vector 38 Can2tsn.switch1.phy[1].shaper.transmissionSelection qPcp3Bytes:vector(packetBytes) ETV
attr interpolationmode none
attr title "Received Bytes, vector(packetBytes)"
attr unit B
vector 39 Can2tsn.switch1.phy[1].shaper.transmissionSelection qPcp3Latency:vector ETV
attr interpolationmode none
attr title "End-to-end latency, vector"
attr unit s
vector 40 Can2tsn.switch1.phy[1].shaper.transmissionSelection qPcp4Bytes:vector(packetBytes) ETV
attr interpolationmode none
attr title "Received Bytes, vector(packetBytes)"
attr unit B
vector 41 Can2tsn.switch1.phy[1].shaper.transmissionSelection qPcp4Latency:vector ETV
attr interpolationmode none
attr title "End-to-end latency, vector"
attr unit s
vector 42 Can2tsn.switch1.phy[1].shaper.transmissionSelection qPcp5Bytes:vector(packetBytes) ETV
attr interpolationmode none
attr title "Received Bytes, vector(packetBytes)"
attr unit B
vector 43 Can2tsn.switch1.phy[1].shaper.transmissionSelection qPcp5Latency:vector ETV
attr interpolationmode none
attr title "End-to-end latency, vector"
attr unit s
vector 44 Can2tsn.switch1.phy[1].shaper.transmissionSelection qPcp6Bytes:vector(packetBytes) ETV
attr interpolationmode none
attr title "Received Bytes, vector(packetBytes)"
attr unit B
vector 45 Can2tsn.switch1.phy[1].shaper.transmissionSelection qPcp6Latency:vector ETV
attr interpolationmode none
attr title "End-to-end latency, vector"
attr unit s
vector 46 Can2tsn.switch1.phy[1].shaper.transmissionSelection qPcp7Bytes:vector(packetBytes) ETV
attr interpolationmode none
attr title "Received Bytes, vector(packetBytes)"
attr unit B
vector 47 Can2tsn.switch1.phy[1].shaper.transmissionSelection qPcp7Latency:vector ETV
attr interpolationmode none
attr title "End-to-end latency, vector"
attr unit s
vector 48 Can2tsn.switch2.phy[0].shaper.transmissionSelection qPcp0Bytes:vector(packetBytes) ETV
attr interpolationmode none
attr title "Received Bytes, vector(packetBytes)"
attr unit B
vector 49 Can2tsn.switch2.phy[0].shaper.transmissionSelection qPcp0Latency:vector ETV
attr interpolationmode none
attr title "End-to-end latency, vector"
attr unit s
vector 50 Can2tsn.switch2.phy[0].shaper.transmissionSelection qPcp1Bytes:vector(packetBytes) ETV
attr interpolationmode none
attr title "Received Bytes, vector(packetBytes)"
attr unit B
vector 51 Can2tsn.switch2.phy[0].shaper.transmissionSelection qPcp1Latency:vector ETV
attr interpolationmode none
attr title "End-to-end latency, vector"
attr unit s
vector 52 Can2tsn.switch2.phy[0].shaper.transmissionSelection qPcp2Bytes:vector(packetBytes) ETV
attr interpolationmode none
attr title "Received Bytes, vector(packetBytes)"
attr unit B
vector 53 Can2tsn.switch2.phy[0].shaper.transmissionSelection qPcp2Latency:vector ETV
attr interpolationmode none
attr title "End-to-end latency, vector"
attr unit s
vector 54 Can2tsn.switch2.phy[0].shaper.transmissionSelection qPcp3Bytes:vector(packetBytes) ETV
attr interpolationmode none
attr title "Received Bytes, vector(packetBytes)"
attr unit B
vector 55 Can2tsn.switch2.phy[0].shaper.transmissionSelection qPcp3Latency:vector ETV
attr interpolationmode none
attr title "End-to-end latency, vector"
attr unit s
vector 56 Can2tsn.switch2.phy[0].shaper.transmissionSelection qPcp4Bytes:vector(packetBytes) ETV
attr interpolationmode none
attr title "Received Bytes, vector(packetBytes)"
attr unit B
vector 57 Can2tsn.switch2.phy[0].shaper.transmissionSelection qPcp4Latency:vector ETV
attr interpolationmode none
attr title "End-to-end latency, vector"
attr unit s
vector 58 Can2tsn.switch2.phy[0].shaper.transmissionSelection qPcp5Bytes:vector(packetBytes) ETV
attr interpolationmode none
attr title "Received Bytes, vector(packetBytes)"
attr unit B
vector 59 Can2tsn.switch2.phy[0].shaper.transmissionSelection qPcp5Latency:vector ETV
attr interpolationmode none
attr title "End-to-end latency, vector"
attr unit s
vector 60 Can2tsn.switch2.phy[0].shaper.transmissionSelection qPcp6Bytes:vector(packetBytes) ETV
attr interpolationmode none
attr title "Received Bytes, vector(packetBytes)"
attr unit B
vector 61 Can2tsn.switch2.phy[0].shaper.transmissionSelection qPcp6Latency:vector ETV
attr interpolationmode none
attr title "End-to-end latency, vector"
attr unit s
vector 62 Can2tsn.switch2.phy[0].shaper.transmissionSelection qPcp7Bytes:vector(packetBytes) ETV
attr interpolationmode none
attr title "Received Bytes, vector(packetBytes)"
attr unit B
vector 63 Can2tsn.switch2.phy[0].shaper.transmissionSelection qPcp7Latency:vector ETV
attr interpolationmode none
attr title "End-to-end latency, vector"
attr unit s
vector 64 Can2tsn.switch2.phy[1].shaper.transmissionSelection qPcp0Bytes:vector(packetBytes) ETV
attr interpolationmode none
attr title "Received Bytes, vector(packetBytes)"
attr unit B
vector 65 Can2tsn.switch2.phy[1].shaper.transmissionSelection qPcp0Latency:vector ETV
attr interpolationmode none
attr title "End-to-end latency, vector"
attr unit s
vector 66 Can2tsn.switch2.phy[1].shaper.transmissionSelection qPcp1Bytes:vector(packetBytes) ETV
attr interpolationmode none
attr title "Received Bytes, vector(packetBytes)"
attr unit B
vector 67 Can2tsn.switch2.phy[1].shaper.transmissionSelection qPcp1Latency:vector ETV
attr interpolationmode none
attr title "End-to-end latency, vector"
attr unit s
vector 68 Can2tsn.switch2.phy[1].shaper.transmissionSelection qPcp2Bytes:vector(packetBytes) ETV
attr interpolationmode none
attr title "Received Bytes, vector(packetBytes)"
attr unit B
vector 69 Can2tsn.switch2.phy[1].shaper.transmissionSelection qPcp2Latency:vector ETV
attr interpolationmode none
attr title "End-to-end latency, vector"
attr unit s
vector 70 Can2tsn.switch2.phy[1].shaper.transmissionSelection qPcp3Bytes:vector(packetBytes) ETV
attr interpolationmode none
attr title "Received Bytes, vector(packetBytes)"
attr unit B
vector 71 Can2tsn.switch2.phy[1].shaper.transmissionSelection qPcp3Latency:vector ETV
attr interpolationmode none
attr title "End-to-end latency, vector"
attr unit s
vector 72 Can2tsn.switch2.phy[1].shaper.transmissionSelection qPcp4Bytes:vector(packetBytes) ETV
attr interpolationmode none
attr title "Received Bytes, vector(packetBytes)"
attr unit B
vector 73 Can2tsn.switch2.phy[1].shaper.transmissionSelection qPcp4Latency:vector ETV
attr interpolationmode none
attr title "End-to-end latency, vector"
attr unit s
vector 74 Can2tsn.switch2.phy[1].shaper.transmissionSelection qPcp5Bytes:vector(packetBytes) ETV
attr interpolationmode none
attr title "Received Bytes, vector(packetBytes)"
attr unit B
vector 75 Can2tsn.switch2.phy[1].shaper.transmissionSelection qPcp5Latency:vector ETV
attr interpolationmode none
attr title "End-to-end latency, vector"
attr unit s
vector 76 Can2tsn.switch2.phy[1].shaper.transmissionSelection qPcp6Bytes:vector(packetBytes) ETV
attr interpolationmode none
attr title "Received Bytes, vector(packetBytes)"
attr unit B
vector 77 Can2tsn.switch2.phy[1].shaper.transmissionSelection qPcp6Latency:vector ETV
attr interpolationmode none
attr title "End-to-end latency, vector"
attr unit s
vector 78 Can2tsn.switch2.phy[1].shaper.transmissionSelection qPcp7Bytes:vector(packetBytes) ETV
attr interpolationmode none
attr title "Received Bytes, vector(packetBytes)"
attr unit B
vector 79 Can2tsn.switch2.phy[1].shaper.transmissionSelection qPcp7Latency:vector ETV
attr interpolationmode none
attr title "End-to-end latency, vector"
attr unit s
vector 80 Can2tsn.gateway2.tsn[0].phy[0].shaper.transmissionSelection qPcp0Bytes:vector(packetBytes) ETV
attr interpolationmode none
attr title "Received Bytes, vector(packetBytes)"
attr unit B
vector 81 Can2tsn.gateway2.tsn[0].phy[0].shaper.transmissionSelection qPcp0Latency:vector ETV
attr interpolationmode none
attr title "End-to-end latency, vector"
attr unit s
vector 82 Can2tsn.gateway2.tsn[0].phy[0].shaper.transmissionSelection qPcp1Bytes:vector(packetBytes) ETV
attr interpolationmode none
attr title "Received Bytes, vector(packetBytes)"
attr unit B
vector 83 Can2tsn.gateway2.tsn[0].phy[0].shaper.transmissionSelection qPcp1Latency:vector ETV
attr interpolationmode none
attr title "End-to-end latency, vector"
attr unit s
vector 84 Can2tsn.gateway2.tsn[0].phy[0].shaper.transmissionSelection qPcp2Bytes:vector(packetBytes) ETV
attr interpolationmode none
attr title "Received Bytes, vector(packetBytes)"
attr unit B
vector 85 Can2tsn.gateway2.tsn[0].phy[0].shaper.transmissionSelection qPcp2Latency:vector ETV
attr interpolationmode none
attr title "End-to-end latency, vector"
attr unit s
vector 86 Can2tsn.gateway2.tsn[0].phy[0].shaper.transmissionSelection qPcp3Bytes:vector(packetBytes) ETV
attr interpolationmode none
attr title "Received Bytes, vector(packetBytes)"
attr unit B
vector 87 Can2tsn.gateway2.tsn[0].phy[0].shaper.transmissionSelection qPcp3Latency:vector ETV
attr interpolationmode none
attr title "End-to-end latency, vector"
attr unit s
vector 88 Can2tsn.gateway2.tsn[0].phy[0].shaper.transmissionSelection qPcp4Bytes:vector(packetBytes) ETV
attr interpolationmode none
attr title "Received Bytes, vector(packetBytes)"
attr unit B
vector 89 Can2tsn.gateway2.tsn[0].phy[0].shaper.transmissionSelection qPcp4Latency:vector ETV
attr interpolationmode none
attr title "End-to-end latency, vector"
attr unit s
vector 90 Can2tsn.gateway2.tsn[0].phy[0].shaper.transmissionSelection qPcp5Bytes:vector(packetBytes) ETV
attr interpolationmode none
attr title "Received Bytes, vector(packetBytes)"
attr unit B
vector 91 Can2tsn.gateway2.tsn[0].phy[0].shaper.transmissionSelection qPcp5Latency:vector ETV
attr interpolationmode none
attr title "End-to-end latency, vector"
attr unit s
vector 92 Can2tsn.gateway2.tsn[0].phy[0].shaper.transmissionSelection qPcp6Bytes:vector(packetBytes) ETV
attr interpolationmode none
attr title "Received Bytes, vector(packetBytes)"
attr unit B
vector 93 Can2tsn.gateway2.tsn[0].phy[0].shaper.transmissionSelection qPcp6Latency:vector ETV
attr interpolationmode none
attr title "End-to-end latency, vector"
attr unit s
vector 94 Can2tsn.gateway2.tsn[0].phy[0].shaper.transmissionSelection qPcp7Bytes:vector(packetBytes) ETV
attr interpolationmode none
attr title "Received Bytes, vector(packetBytes)"
attr unit B
vector 95 Can2tsn.gateway2.tsn[0].phy[0].shaper.transmissionSelection qPcp7Latency:vector ETV
attr interpolationmode none
attr title "End-to-end latency, vector"
attr unit s
vector 96 Can2tsn.canNode1.canClock clockDrift:vector ETV
attr interpolationmode linear
attr source clockDrift
attr title "clockDrift, vector"
attr unit s
vector 97 Can2tsn.gateway1.can[0].canClock clockDrift:vector ETV
attr interpolationmode linear
attr source clockDrift
attr title "clockDrift, vector"
attr unit s
vector 98 Can2tsn.canNode2.canClock clockDrift:vector ETV
attr interpolationmode linear
attr source clockDrift
attr title "clockDrift, vector"
attr unit s
vector 99 Can2tsn.gateway2.can[0].canClock clockDrift:vector ETV
attr interpolationmode linear
attr source clockDrift
attr title "clockDrift, vector"
attr unit s
vector 100 Can2tsn.gateway1.tsn[0].phy[0].shaper.transmissionGate[7] state:vector ETV
attr "" ""
attr interpolationmode sample-hold
attr source NF_QBV_STATE_CHANGED
attr title "State, vector"
vector 101 Can2tsn.gateway1.tsn[0].phy[0].shaper.transmissionGate[1] state:vector ETV
attr "" ""
attr interpolationmode sample-hold
attr source NF_QBV_STATE_CHANGED
attr title "State, vector"
vector 102 Can2tsn.switch1.phy[0].shaper.transmissionGate[7] state:vector ETV
attr "" ""
attr interpolationmode sample-hold
attr source NF_QBV_STATE_CHANGED
attr title "State, vector"
vector 103 Can2tsn.switch1.phy[0].shaper.transmissionGate[1] state:vector ETV
attr "" ""
attr interpolationmode sample-hold
attr source NF_QBV_STATE_CHANGED
attr title "State, vector"
vector 104 Can2tsn.switch1.phy[1].shaper.transmissionGate[7] state:vector ETV
attr "" ""
attr interpolationmode sample-hold
attr source NF_QBV_STATE_CHANGED
attr title "State, vector"
vector 105 Can2tsn.switch1.phy[1].shaper.transmissionGate[1] state:vector ETV
attr "" ""
attr interpolationmode sample-hold
attr source NF_QBV_STATE_CHANGED
attr title "State, vector"
vector 106 Can2tsn.switch2.phy[0].shaper.transmissionGate[7] state:vector ETV
attr "" ""
attr interpolationmode sample-hold
attr source NF_QBV_STATE_CHANGED
attr title "State, vector"
vector 107 Can2tsn.switch2.phy[0].shaper.transmissionGate[1] state:vector ETV
attr "" ""
attr interpolationmode sample-hold
attr source NF_QBV_STATE_CHANGED
attr title "State, vector"
vector 108 Can2tsn.switch2.phy[1].shaper.transmissionGate[7] state:vector ETV
attr "" ""
attr interpolationmode sample-hold
attr source NF_QBV_STATE_CHANGED
attr title "State, vector"
vector 109 Can2tsn.switch2.phy[1].shaper.transmissionGate[1] state:vector ETV
attr "" ""
attr interpolationmode sample-hold
attr source NF_QBV_STATE_CHANGED
attr title "State, vector"
vector 110 Can2tsn.gateway2.tsn[0].phy[0].shaper.transmissionGate[7] state:vector ETV
attr "" ""
attr interpolationmode sample-hold
attr source NF_QBV_STATE_CHANGED
attr title "State, vector"
vector 111 Can2tsn.gateway2.tsn[0].phy[0].shaper.transmissionGate[1] state:vector ETV
attr "" ""
attr interpolationmode sample-hold
attr source NF_QBV_STATE_CHANGED
attr title "State, vector"
vector 112 Can2tsn.canNode1.bufferOut rxPk:vector(packetBytes) ETV
attr interpolationmode none
attr source rxPk
attr title "RX Packets, vector(packetBytes)"
vector 113 Can2tsn.canNode1.bufferOut length:vector ETV
attr interpolationmode sample-hold
attr source length
attr title "Queue Length, vector"
attr unit packets
vector 114 Can2tsn.canNode1.bufferOut size:vector ETV
attr interpolationmode sample-hold
attr source size
attr title "Queue Size, vector"
attr unit B
vector 115 Can2tsn.canBus1.canBusLogic arbitrationLength:vector ETV
attr interpolationmode sample-hold
attr source arbitrationLength
attr title "Arbitration Length, vector"
attr unit packets
vector 116 Can2tsn.canNode1.bufferOut txPk:vector(packetBytes) ETV
attr interpolationmode none
attr source txPk
attr title "TX Packets, vector(packetBytes)"
vector 117 Can2tsn.gateway1.tsn[0].phy[0].shaper.transmissionGate[6] state:vector ETV
attr "" ""
attr interpolationmode sample-hold
attr source NF_QBV_STATE_CHANGED
attr title "State, vector"
vector 118 Can2tsn.switch1.phy[0].shaper.transmissionGate[6] state:vector ETV
attr "" ""
attr interpolationmode sample-hold
attr source NF_QBV_STATE_CHANGED
attr title "State, vector"
vector 119 Can2tsn.switch1.phy[1].shaper.transmissionGate[6] state:vector ETV
attr "" ""
attr interpolationmode sample-hold
attr source NF_QBV_STATE_CHANGED
attr title "State, vector"
vector 120 Can2tsn.switch2.phy[0].shaper.transmissionGate[6] state:vector ETV
attr "" ""
attr interpolationmode sample-hold
attr source NF_QBV_STATE_CHANGED
attr title "State, vector"
vector 121 Can2tsn.switch2.phy[1].shaper.transmissionGate[6] state:vector ETV
attr "" ""
attr interpolationmode sample-hold
attr source NF_QBV_STATE_CHANGED
attr title "State, vector"
vector 122 Can2tsn.gateway2.tsn[0].phy[0].shaper.transmissionGate[6] state:vector ETV
attr "" ""
attr interpolationmode sample-hold
attr source NF_QBV_STATE_CHANGED
attr title "State, vector"
vector 123 Can2tsn.gateway1.can[0].canNodePort.canPortInput rxDFLatency:vector ETV
attr interpolationmode linear
attr source timestampAge(rxDF)
attr title "End-to-end latency of data frames, vector"
attr unit s
vector 124 Can2tsn.gateway1.can[0].canNodePort.canPortInput rxDFPayloadLatency:vector ETV
attr interpolationmode linear
attr source timestampAge(rxDFPayload)
attr title "End-to-end latency of data frame payload, vector"
attr unit s
vector 125 Can2tsn.gateway1.can[0].bufferIn[0] rxPk:vector(packetBytes) ETV
attr interpolationmode none
attr source rxPk
attr title "RX Packets, vector(packetBytes)"
vector 126 Can2tsn.gateway1.can[0].bufferIn[0] txPk:vector(packetBytes) ETV
attr interpolationmode none
attr source txPk
attr title "TX Packets, vector(packetBytes)"
vector 127 Can2tsn.gateway1.tsn[0].phy[0].shaper.transmissionGate[2] state:vector ETV
attr "" ""
attr interpolationmode sample-hold
attr source NF_QBV_STATE_CHANGED
attr title "State, vector"
vector 128 Can2tsn.switch1.phy[0].shaper.transmissionGate[2] state:vector ETV
attr "" ""
attr interpolationmode sample-hold
attr source NF_QBV_STATE_CHANGED
attr title "State, vector"
vector 129 Can2tsn.switch1.phy[1].shaper.transmissionGate[2] state:vector ETV
attr "" ""
attr interpolationmode sample-hold
attr source NF_QBV_STATE_CHANGED
attr title "State, vector"
vector 130 Can2tsn.switch2.phy[0].shaper.transmissionGate[2] state:vector ETV
attr "" ""
attr interpolationmode sample-hold
attr source NF_QBV_STATE_CHANGED
attr title "State, vector"
vector 131 Can2tsn.switch2.phy[1].shaper.transmissionGate[2] state:vector ETV
attr "" ""
attr interpolationmode sample-hold
attr source NF_QBV_STATE_CHANGED
attr title "State, vector"
vector 132 Can2tsn.gateway2.tsn[0].phy[0].shaper.transmissionGate[2] state:vector ETV
attr "" ""
attr interpolationmode sample-hold
attr source NF_QBV_STATE_CHANGED
attr title "State, vector"
vector 133 Can2tsn.gateway1.tsn[0].phy[0].shaper.transmissionGate[3] state:vector ETV
attr "" ""
attr interpolationmode sample-hold
attr source NF_QBV_STATE_CHANGED
attr title "State, vector"
vector 134 Can2tsn.switch1.phy[0].shaper.transmissionGate[3] state:vector ETV
attr "" ""
attr interpolationmode sample-hold
attr source NF_QBV_STATE_CHANGED
attr title "State, vector"
vector 135 Can2tsn.switch1.phy[1].shaper.transmissionGate[3] state:vector ETV
attr "" ""
attr interpolationmode sample-hold
attr source NF_QBV_STATE_CHANGED
attr title "State, vector"
vector 136 Can2tsn.switch2.phy[0].shaper.transmissionGate[3] state:vector ETV
attr "" ""
attr interpolationmode sample-hold
attr source NF_QBV_STATE_CHANGED
attr title "State, vector"
vector 137 Can2tsn.switch2.phy[1].shaper.transmissionGate[3] state:vector ETV
attr "" ""
attr interpolationmode sample-hold
attr source NF_QBV_STATE_CHANGED
attr title "State, vector"
vector 138 Can2tsn.gateway2.tsn[0].phy[0].shaper.transmissionGate[3] state:vector ETV
attr "" ""
attr interpolationmode sample-hold
attr source NF_QBV_STATE_CHANGED
attr title "State, vector"
vector 139 Can2tsn.gateway1.tsn[0].phy[0].shaper.transmissionGate[4] state:vector ETV
attr "" ""
attr interpolationmode sample-hold
attr source NF_QBV_STATE_CHANGED
attr title "State, vector"
vector 140 Can2tsn.switch1.phy[0].shaper.transmissionGate[4] state:vector ETV
attr "" ""
attr interpolationmode sample-hold
attr source NF_QBV_STATE_CHANGED
attr title "State, vector"
vector 141 Can2tsn.switch1.phy[1].shaper.transmissionGate[4] state:vector ETV
attr "" ""
attr interpolationmode sample-hold
attr source NF_QBV_STATE_CHANGED
attr title "State, vector"
vector 142 Can2tsn.switch2.phy[0].shaper.transmissionGate[4] state:vector ETV
attr "" ""
attr interpolationmode sample-hold
attr source NF_QBV_STATE_CHANGED
attr title "State, vector"
vector 143 Can2tsn.switch2.phy[1].shaper.transmissionGate[4] state:vector ETV
attr "" ""
attr interpolationmode sample-hold
attr source NF_QBV_STATE_CHANGED
attr title "State, vector"
vector 144 Can2tsn.gateway2.tsn[0].phy[0].shaper.transmissionGate[4] state:vector ETV
attr "" ""
attr interpolationmode sample-hold
attr source NF_QBV_STATE_CHANGED
attr title "State, vector"
vector 145 Can2tsn.gateway1.gateway.transform[1] EncapCanFrameCnt:vector ETV
attr interpolationmode linear
attr source EncapCanFrameCnt
attr title "Encapsulation-CAN, vector"
vector 146 Can2tsn.gateway1.tsn[0].bgOut length:vector ETV
attr interpolationmode sample-hold
attr source length
attr title "Queue Length, vector"
attr unit packets
vector 147 Can2tsn.gateway1.tsn[0].bgOut size:vector ETV
attr interpolationmode sample-hold
attr source size
attr title "Queue Size, vector"
attr unit B
vector 148 Can2tsn.gateway1.tsn[0].bgOut txBytes:vector(packetBytes) ETV
attr interpolationmode none
attr source txPk
attr title "Transmitted Bytes, vector(packetBytes)"
attr unit B
vector 149 Can2tsn.gateway1.tsn[0].bgOut txLatency:vector ETV
attr interpolationmode none
attr source messageAge(txPk)
attr title "End-to-end latency (transmitted), vector"
attr unit s
vector 150 Can2tsn.gateway1.tsn[0].phy[0].shaper.queue[6] length:vector ETV
attr interpolationmode sample-hold
attr source length
attr title "Queue Length, vector"
attr unit packets
vector 151 Can2tsn.gateway1.tsn[0].phy[0].shaper.queue[6] size:vector ETV
attr interpolationmode sample-hold
attr source size
attr title "Queue Size, vector"
attr unit B
vector 152 Can2tsn.gateway1.tsn[0].phy[0].shaper.queue[6] state:vector ETV
attr "" ""
attr interpolationmode sample-hold
attr source NF_QBV_STATE_CHANGED
attr title "State, vector"
vector 153 Can2tsn.gateway1.tsn[0].phy[0].mac rxPkFromHL:vector(packetBytes) ETV
attr interpolationmode none
attr source rxPkFromHL
attr title "packet bytes from higher layer, vector(packetBytes)"
vector 154 Can2tsn.switch1.phy[0].mac rxPkOk:vector(packetBytes) ETV
attr interpolationmode none
attr source rxPkOk
attr title "packets received OK, vector(packetBytes)"
vector 155 Can2tsn.switch1.phy[0].mac passedUpPk:vector(packetBytes) ETV
attr interpolationmode none
attr source packetSentToUpper
attr title "packets passed to higher layer, vector(packetBytes)"
vector 156 Can2tsn.gateway1.tsn[0].phy[0].mac txPk:vector(packetBytes) ETV
attr interpolationmode none
attr source txPk
attr title "packets transmitted, vector(packetBytes)"
vector 157 Can2tsn.switch1.phy[0].inControl rxLatency:vector ETV
attr interpolationmode none
attr source messageAge(rxPk)
attr title "End-to-end latency (received), vector"
attr unit s
vector 158 Can2tsn.switch1.phy[1].shaper.queue[7] length:vector ETV
attr interpolationmode sample-hold
attr source length
attr title "Queue Length, vector"
attr unit packets
vector 159 Can2tsn.switch1.phy[1].shaper.queue[7] size:vector ETV
attr interpolationmode sample-hold
attr source size
attr title "Queue Size, vector"
attr unit B
vector 160 Can2tsn.switch1.phy[1].shaper.queue[7] state:vector ETV
attr "" ""
attr interpolationmode sample-hold
attr source NF_QBV_STATE_CHANGED
attr title "State, vector"
vector 161 Can2tsn.switch1.phy[1].mac rxPkFromHL:vector(packetBytes) ETV
attr interpolationmode none
attr source rxPkFromHL
attr title "packet bytes from higher layer, vector(packetBytes)"
vector 162 Can2tsn.switch2.phy[0].mac rxPkOk:vector(packetBytes) ETV
attr interpolationmode none
attr source rxPkOk
attr title "packets received OK, vector(packetBytes)"
vector 163 Can2tsn.switch2.phy[0].mac passedUpPk:vector(packetBytes) ETV
attr interpolationmode none
attr source packetSentToUpper
attr title "packets passed to higher layer, vector(packetBytes)"
vector 164 Can2tsn.switch1.phy[1].mac txPk:vector(packetBytes) ETV
attr interpolationmode none
attr source txPk
attr title "packets transmitted, vector(packetBytes)"
vector 165 Can2tsn.switch2.phy[0].inControl rxLatency:vector ETV
attr interpolationmode none
attr source messageAge(rxPk)
attr title "End-to-end latency (received), vector"
attr unit s
vector 166 Can2tsn.switch2.phy[1].shaper.queue[6] length:vector ETV
attr interpolationmode sample-hold
attr source length
attr title "Queue Length, vector"
attr unit packets
vector 167 Can2tsn.switch2.phy[1].shaper.queue[6] size:vector ETV
attr interpolationmode sample-hold
attr source size
attr title "Queue Size, vector"
attr unit B
vector 168 Can2tsn.switch2.phy[1].shaper.queue[6] state:vector ETV
attr "" ""
attr interpolationmode sample-hold
attr source NF_QBV_STATE_CHANGED
attr title "State, vector"
vector 169 Can2tsn.switch2.phy[1].mac rxPkFromHL:vector(packetBytes) ETV
attr interpolationmode none
attr source rxPkFromHL
attr title "packet bytes from higher layer, vector(packetBytes)"
vector 170 Can2tsn.gateway2.tsn[0].phy[0].mac rxPkOk:vector(packetBytes) ETV
attr interpolationmode none
attr source rxPkOk
attr title "packets received OK, vector(packetBytes)"
vector 171 Can2tsn.gateway2.tsn[0].phy[0].mac passedUpPk:vector(packetBytes) ETV
attr interpolationmode none
attr source packetSentToUpper
attr title "packets passed to higher layer, vector(packetBytes)"
vector 172 Can2tsn.switch2.phy[1].mac txPk:vector(packetBytes) ETV
attr interpolationmode none
attr source txPk
attr title "packets transmitted, vector(packetBytes)"
vector 173 Can2tsn.gateway2.tsn[0].phy[0].inControl rxLatency:vector ETV
attr interpolationmode none
attr source messageAge(rxPk)
attr title "End-to-end latency (received), vector"
attr unit s
vector 174 Can2tsn.gateway2.tsn[0].bgIn length:vector ETV
attr interpolationmode sample-hold
attr source length
attr title "Queue Length, vector"
attr unit packets
vector 175 Can2tsn.gateway2.tsn[0].bgIn size:vector ETV
attr interpolationmode sample-hold
attr source size
attr title "Queue Size, vector"
attr unit B
vector 176 Can2tsn.gateway2.tsn[0].bgIn txBytes:vector(packetBytes) ETV
attr interpolationmode none
attr source txPk
attr title "Transmitted Bytes, vector(packetBytes)"
attr unit B
vector 177 Can2tsn.gateway2.tsn[0].bgIn txLatency:vector ETV
attr interpolationmode none
attr source messageAge(txPk)
attr title "End-to-end latency (transmitted), vector"
attr unit s
vector 178 Can2tsn.gateway2.gateway.transform[0] RAE_Bandwidth:vector ETV
attr interpolationmode linear
attr source RAE_Bandwidth
attr title "Bandwidth, vector"
vector 179 Can2tsn.gateway2.can[0].bufferOut rxPk:vector(packetBytes) ETV
attr interpolationmode none
attr source rxPk
attr title "RX Packets, vector(packetBytes)"
vector 180 Can2tsn.gateway2.can[0].bufferOut length:vector ETV
attr interpolationmode sample-hold
attr source length
attr title "Queue Length, vector"
attr unit packets
vector 181 Can2tsn.gateway2.can[0].bufferOut size:vector ETV
attr interpolationmode sample-hold
attr source size
attr title "Queue Size, vector"
attr unit B
vector 182 Can2tsn.canBus2.canBusLogic arbitrationLength:vector ETV
attr interpolationmode sample-hold
attr source arbitrationLength
attr title "Arbitration Length, vector"
attr unit packets
vector 183 Can2tsn.gateway2.can[0].bufferOut txPk:vector(packetBytes) ETV
attr interpolationmode none
attr source txPk
attr title "TX Packets, vector(packetBytes)"
0	0	0	0
1	0	0	0
2	0	0	0
3	0	0	0
4	0	0	0
5	0	0	0
6	0	0	0
7	0	0	0
8	0	0	0
9	0	0	0
10	0	0	0
11	0	0	0
12	0	0	0
12	1175	0.0060001	64
12	2877	0.016	64
12	4591	0.026	64
12	6305	0.036	64
12	8025	0.046	64
12	9733	0.056	64
12	11453	0.0660001	64
12	13161	0.076	64
12	14875	0.086	64
12	16583	0.0960001	64
12	18297	0.106	64
12	20005	0.116	64
12	21719	0.126	64
12	23439	0.1360001	64
12	25147	0.146	64
12	26861	0.156	64
12	28569	0.1660001	64
12	30283	0.176	64
12	31991	0.186	64
12	33711	0.1960001	64
12	35413	0.206	64
12	37127	0.216	64
12	38841	0.226	64
12	40561	0.236	64
12	42269	0.246	64
12	43983	0.256	64
12	45679	0.2660001	64
12	47399	0.2760001	64
12	49113	0.286	64
12	50827	0.296	64
12	52541	0.306	64
12	54255	0.316	64
12	55963	0.3260001	64
12	57677	0.3360001	64
12	59385	0.346	64
12	61093	0.356	64
12	62807	0.366	64
12	64521	0.376	64
12	66235	0.3860001	64
12	67949	0.3960001	64
12	69669	0.4060001	64
12	71371	0.416	64
12	73091	0.426	64
12	74799	0.436	64
12	76513	0.446	64
12	78221	0.456	64
12	79941	0.466	64
12	81643	0.476	64
12	83357	0.486	64
12	85071	0.496	64
12	86791	0.506	64
12	88493	0.516	64
12	90207	0.5260001	64
12	91921	0.5360001	64
12	93635	0.5460001	64
12	95349	0.5560001	64
12	97069	0.566	64
12	98777	0.576	64
12	100479	0.586	64
12	102193	0.596	64
12	103901	0.606	64
12	105621	0.616	64
12	107335	0.626	64
12	109049	0.636	64
12	110763	0.6460001	64
12	112471	0.6560001	64
12	114179	0.6660001	64
12	115893	0.6760001	64
12	117595	0.6860001	64
12	119315	0.696	64
12	121035	0.706	64
12	122749	0.716	64
12	124451	0.726	64
12	126165	0.736	64
12	127879	0.746	64
12	129587	0.756	64
12	131295	0.7660001	64
12	133009	0.7760001	64
12	134723	0.7860001	64
12	136437	0.7960001	64
12	138145	0.8060001	64
12	139859	0.816	64
12	141579	0.826	64
12	143287	0.836	64
12	145001	0.846	64
12	146709	0.856	64
12	148423	0.866	64
12	150137	0.876	64
12	151851	0.886	64
12	153565	0.896	64
12	155285	0.906	64
12	156987	0.916	64
12	158701	0.926	64
12	160403	0.9360001	64
12	162111	0.946	64
12	163831	0.956	64
12	165551	0.966	64
12	167265	0.976	64
12	168973	0.986	64
12	170693	0.996	64
12	172395	1.006	64
12	174109	1.016	64
12	175817	1.026	64
12	177537	1.036	64
12	179245	1.046	64
12	180959	1.0560001	64
12	182673	1.0660001	64
12	184387	1.0760001	64
12	186101	1.0860001	64
12	187809	1.0960001	64
12	189511	1.1060001	64
12	191231	1.1160001	64
12	192945	1.126	64
12	194653	1.136	64
12	196361	1.146	64
12	198081	1.156	64
12	199801	1.166	64
12	201509	1.176	64
12	203211	1.186	64
12	204925	1.196	64
12	206639	1.206	64
12	208347	1.216	64
12	210061	1.226	64
12	211775	1.236	64
12	213495	1.246	64
12	215197	1.256	64
12	216911	1.266	64
12	218619	1.276	64
12	220333	1.286	64
12	222053	1.2960001	64
12	223767	1.3060001	64
12	225469	1.3160001	64
12	227195	1.3260001	64
12	228903	1.3360001	64
12	230617	1.3460001	64
12	232319	1.3560001	64
12	234039	1.3660001	64
12	235747	1.376	64
12	237461	1.386	64
12	239175	1.396	64
12	240883	1.406	64
12	242603	1.416	64
12	244305	1.426	64
12	246019	1.436	64
12	247727	1.446	64
12	249453	1.456	64
12	251155	1.466	64
12	252869	1.476	64
12	254589	1.486	64
12	256303	1.496	64
12	258011	1.506	64
12	259725	1.516	64
12	261427	1.526	64
12	263147	1.5360001	64
12	264861	1.5460001	64
12	266575	1.5560001	64
12	268283	1.5660001	64
12	269997	1.5760001	64
12	271711	1.5860001	64
12	273413	1.5960001	64
12	275121	1.6060001	64
12	276841	1.6160001	64
12	278561	1.626	64
12	280269	1.636	64
12	281977	1.646	64
12	283691	1.656	64
12	285411	1.666	64
12	287113	1.676	64
12	288821	1.686	64
12	290535	1.696	64
12	292249	1.706	64
12	293963	1.716	64
12	295677	1.726	64
12	297385	1.736	64
12	299105	1.746	64
12	300813	1.756	64
12	302527	1.766	64
12	304229	1.776	64
12	305949	1.786	64
12	307657	1.796	64
12	309371	1.806	64
12	311091	1.816	64
12	312811	1.826	64
12	314519	1.836	64
12	316221	1.846	64
12	317935	1.856	64
12	319637	1.8660001	64
12	321357	1.876	64
12	323071	1.886	64
12	324785	1.896	64
12	326499	1.906	64
12	328213	1.916	64
12	329921	1.926	64
12	331635	1.936	64
12	333343	1.946	64
12	335063	1.956	64
12	336777	1.966	64
12	338485	1.976	64
12	340199	1.986	64
12	341913	1.996	64
13	0	0	0
13	1175	0.0060001	0.0001991
13	2877	0.016	0.000199
13	4591	0.026	0.000199
13	6305	0.036	0.000199
13	8025	0.046	0.000199
13	9733	0.056	0.000199
13	11453	0.0660001	0.0001991
13	13161	0.076	0.000199
13	14875	0.086	0.000199
13	16583	0.0960001	0.0001991
13	18297	0.106	0.000199
13	20005	0.116	0.000199
13	21719	0.126	0.000199
13	23439	0.1360001	0.0001991
13	25147	0.146	0.000199
13	26861	0.156	0.000199
13	28569	0.1660001	0.0001991
13	30283	0.176	0.000199
13	31991	0.186	0.000199
13	33711	0.1960001	0.0001991
13	35413	0.206	0.000199
13	37127	0.216	0.000199
13	38841	0.226	0.000199
13	40561	0.236	0.000199
13	42269	0.246	0.000199
13	43983	0.256	0.000199
13	45679	0.2660001	0.0001991
13	47399	0.2760001	0.0001991
13	49113	0.286	0.000199
13	50827	0.296	0.000199
13	52541	0.306	0.000199
13	54255	0.316	0.000199
13	55963	0.3260001	0.0001991
13	57677	0.3360001	0.0001991
13	59385	0.346	0.000199
13	61093	0.356	0.000199
13	62807	0.366	0.000199
13	64521	0.376	0.000199
13	66235	0.3860001	0.0001991
13	67949	0.3960001	0.0001991
13	69669	0.4060001	0.0001991
13	71371	0.416	0.000199
13	73091	0.426	0.000199
13	74799	0.436	0.000199
13	76513	0.446	0.000199
13	78221	0.456	0.000199
13	79941	0.466	0.000199
13	81643	0.476	0.000199
13	83357	0.486	0.000199
13	85071	0.496	0.000199
13	86791	0.506	0.000199
13	88493	0.516	0.000199
13	90207	0.5260001	0.0001991
13	91921	0.5360001	0.0001991
13	93635	0.5460001	0.0001991
13	95349	0.5560001	0.0001991
13	97069	0.566	0.000199
13	98777	0.576	0.000199
13	100479	0.586	0.000199
13	102193	0.596	0.000199
13	103901	0.606	0.000199
13	105621	0.616	0.000199
13	107335	0.626	0.000199
13	109049	0.636	0.000199
13	110763	0.6460001	0.0001991
13	112471	0.6560001	0.0001991
13	114179	0.6660001	0.0001991
13	115893	0.6760001	0.0001991
13	117595	0.6860001	0.0001991
13	119315	0.696	0.000199
13	121035	0.706	0.000199
13	122749	0.716	0.000199
13	124451	0.726	0.000199
13	126165	0.736	0.000199
13	127879	0.746	0.000199
13	129587	0.756	0.000199
13	131295	0.7660001	0.0001991
13	133009	0.7760001	0.0001991
13	134723	0.7860001	0.0001991
13	136437	0.7960001	0.0001991
13	138145	0.8060001	0.0001991
13	139859	0.816	0.000199
13	141579	0.826	0.000199
13	143287	0.836	0.000199
13	145001	0.846	0.000199
13	146709	0.856	0.000199
13	148423	0.866	0.000199
13	150137	0.876	0.000199
13	151851	0.886	0.000199
13	153565	0.896	0.000199
13	155285	0.906	0.000199
13	156987	0.916	0.000199
13	158701	0.926	0.000199
13	160403	0.9360001	0.0001991
13	162111	0.946	0.000199
13	163831	0.956	0.000199
13	165551	0.966	0.000199
13	167265	0.976	0.000199
13	168973	0.986	0.000199
13	170693	0.996	0.000199
13	172395	1.006	0.000199
13	174109	1.016	0.000199
13	175817	1.026	0.000199
13	177537	1.036	0.000199
13	179245	1.046	0.000199
13	180959	1.0560001	0.0001991
13	182673	1.0660001	0.0001991
13	184387	1.0760001	0.0001991
13	186101	1.0860001	0.0001991
13	187809	1.0960001	0.0001991
13	189511	1.1060001	0.0001991
13	191231	1.1160001	0.0001991
13	192945	1.126	0.000199
13	194653	1.136	0.000199
13	196361	1.146	0.000199
13	198081	1.156	0.000199
13	199801	1.166	0.000199
13	201509	1.176	0.000199
13	203211	1.186	0.000199
13	204925	1.196	0.000199
13	206639	1.206	0.000199
13	208347	1.216	0.000199
13	210061	1.226	0.000199
13	211775	1.236	0.000199
13	213495	1.246	0.000199
13	215197	1.256	0.000199
13	216911	1.266	0.000199
13	218619	1.276	0.000199
13	220333	1.286	0.000199
13	222053	1.2960001	0.0001991
13	223767	1.3060001	0.0001991
13	225469	1.3160001	0.0001991
13	227195	1.3260001	0.0001991
13	228903	1.3360001	0.0001991
13	230617	1.3460001	0.0001991
13	232319	1.3560001	0.0001991
13	234039	1.3660001	0.0001991
13	235747	1.376	0.000199
13	237461	1.386	0.000199
13	239175	1.396	0.000199
13	240883	1.406	0.000199
13	242603	1.416	0.000199
13	244305	1.426	0.000199
13	246019	1.436	0.000199
13	247727	1.446	0.000199
13	249453	1.456	0.000199
13	251155	1.466	0.000199
13	252869	1.476	0.000199
13	254589	1.486	0.000199
13	256303	1.496	0.000199
13	258011	1.506	0.000199
13	259725	1.516	0.000199
13	261427	1.526	0.000199
13	263147	1.5360001	0.0001991
13	264861	1.5460001	0.0001991
13	266575	1.5560001	0.0001991
13	268283	1.5660001	0.0001991
13	269997	1.5760001	0.0001991
13	271711	1.5860001	0.0001991
13	273413	1.5960001	0.0001991
13	275121	1.6060001	0.0001991
13	276841	1.6160001	0.0001991
13	278561	1.626	0.000199
13	280269	1.636	0.000199
13	281977	1.646	0.000199
13	283691	1.656	0.000199
13	285411	1.666	0.000199
13	287113	1.676	0.000199
13	288821	1.686	0.000199
13	290535	1.696	0.000199
13	292249	1.706	0.000199
13	293963	1.716	0.000199
13	295677	1.726	0.000199
13	297385	1.736	0.000199
13	299105	1.746	0.000199
13	300813	1.756	0.000199
13	302527	1.766	0.000199
13	304229	1.776	0.000199
13	305949	1.786	0.000199
13	307657	1.796	0.000199
13	309371	1.806	0.000199
13	311091	1.816	0.000199
13	312811	1.826	0.000199
13	314519	1.836	0.000199
13	316221	1.846	0.000199
13	317935	1.856	0.000199
13	319637	1.8660001	0.0001991
13	321357	1.876	0.000199
13	323071	1.886	0.000199
13	324785	1.896	0.000199
13	326499	1.906	0.000199
13	328213	1.916	0.000199
13	329921	1.926	0.000199
13	331635	1.936	0.000199
13	333343	1.946	0.000199
13	335063	1.956	0.000199
13	336777	1.966	0.000199
13	338485	1.976	0.000199
13	340199	1.986	0.000199
13	341913	1.996	0.000199
14	0	0	0
15	0	0	0
16	0	0	0
17	0	0	0
18	0	0	0
19	0	0	0
20	0	0	0
21	0	0	0
22	0	0	0
23	0	0	0
24	0	0	0
25	0	0	0
26	0	0	0
27	0	0	0
28	0	0	0
29	0	0	0
30	0	0	0
31	0	0	0
32	0	0	0
33	0	0	0
34	0	0	0
35	0	0	0
36	0	0	0
37	0	0	0
38	0	0	0
39	0	0	0
40	0	0	0
41	0	0	0
42	0	0	0
43	0	0	0
44	0	0	0
45	0	0	0
46	0	0	0
46	1223	0.0062	64
46	2919	0.0162	64
46	4639	0.0262001	64
46	6353	0.0362001	64
46	8073	0.0462	64
46	9781	0.0562	64
46	11501	0.0662	64
46	13203	0.0762001	64
46	14923	0.0862	64
46	16631	0.0962	64
46	18345	0.1062	64
46	20053	0.1162	64
46	21767	0.1262001	64
46	23481	0.1362	64
46	25195	0.1462	64
46	26909	0.1562001	64
46	28617	0.1662	64
46	30331	0.1762	64
46	32039	0.1862001	64
46	33753	0.1962001	64
46	35461	0.2062	64
46	37175	0.2162	64
46	38889	0.2262	64
46	40609	0.2362	64
46	42317	0.2462	64
46	44025	0.2562	64
46	45727	0.2662	64
46	47447	0.2762	64
46	49161	0.2862	64
46	50875	0.2962001	64
46	52589	0.3062001	64
46	54297	0.3162	64
46	56005	0.3262	64
46	57725	0.3362	64
46	59433	0.3462001	64
46	61141	0.3562001	64
46	62855	0.3662001	64
46	64563	0.3762	64
46	66283	0.3862	64
46	67997	0.3962	64
46	69717	0.4062001	64
46	71419	0.4162001	64
46	73139	0.4262	64
46	74841	0.4362	64
46	76561	0.4462	64
46	78269	0.4562	64
46	79989	0.4662	64
46	81691	0.4762	64
46	83405	0.4862	64
46	85113	0.4962	64
46	86839	0.5062	64
46	88541	0.5162	64
46	90255	0.5262	64
46	91969	0.5362	64
46	93683	0.5462	64
46	95391	0.5562001	64
46	97117	0.5662001	64
46	98825	0.5762001	64
46	100527	0.5862001	64
46	102241	0.5962	64
46	103949	0.6062	64
46	105663	0.6162	64
46	107383	0.6262	64
46	109097	0.6362	64
46	110811	0.6462	64
46	112519	0.6562	64
46	114227	0.6662	64
46	115935	0.6762001	64
46	117643	0.6862001	64
46	119363	0.6962001	64
46	121083	0.7062001	64
46	122797	0.7162	64
46	124499	0.7262	64
46	126207	0.7362	64
46	127921	0.7462	64
46	129635	0.7562	64
46	131343	0.7662	64
46	133057	0.7762	64
46	134771	0.7862	64
46	136479	0.7962001	64
46	138193	0.8062001	64
46	139907	0.8162001	64
46	141627	0.8262001	64
46	143335	0.8362001	64
46	145049	0.8462	64
46	146751	0.8562	64
46	148471	0.8662	64
46	150185	0.8762	64
46	151899	0.8862	64
46	153613	0.8962	64
46	155333	0.9062	64
46	157029	0.9162	64
46	158749	0.9262	64
46	160451	0.9362	64
46	162159	0.9462	64
46	163879	0.9562001	64
46	165599	0.9662	64
46	167307	0.9762	64
46	169021	0.9862	64
46	170741	0.9962	64
46	172443	1.0062	64
46	174157	1.0162	64
46	175865	1.0262	64
46	177579	1.0362	64
46	179293	1.0462	64
46	181007	1.0562	64
46	182721	1.0662	64
46	184435	1.0762001	64
46	186149	1.0862001	64
46	187851	1.0962001	64
46	189559	1.1062001	64
46	191279	1.1162001	64
46	192993	1.1262001	64
46	194701	1.1362001	64
46	196409	1.1462001	64
46	198123	1.1562	64
46	199843	1.1662	64
46	201557	1.1762	64
46	203259	1.1862	64
46	204973	1.1962	64
46	206687	1.2062	64
46	208389	1.2162	64
46	210109	1.2262	64
46	211823	1.2362	64
46	213543	1.2462	64
46	215245	1.2562	64
46	216959	1.2662	64
46	218661	1.2762	64
46	220381	1.2862	64
46	222101	1.2962	64
46	223815	1.3062	64
46	225517	1.3162001	64
46	227243	1.3262001	64
46	228945	1.3362001	64
46	230665	1.3462001	64
46	232367	1.3562001	64
46	234087	1.3662001	64
46	235795	1.3762001	64
46	237509	1.3862001	64
46	239217	1.3962001	64
46	240931	1.4062	64
46	242651	1.4162	64
46	244353	1.4262	64
46	246067	1.4362	64
46	247775	1.4462	64
46	249495	1.4562	64
46	251203	1.4662	64
46	252917	1.4762	64
46	254637	1.4862	64
46	256351	1.4962	64
46	258059	1.5062	64
46	259767	1.5162	64
46	261475	1.5262	64
46	263195	1.5362	64
46	264909	1.5462	64
46	266623	1.5562001	64
46	268331	1.5662001	64
46	270039	1.5762001	64
46	271753	1.5862001	64
46	273461	1.5962001	64
46	275169	1.6062001	64
46	276889	1.6162001	64
46	278609	1.6262001	64
46	280311	1.6362001	64
46	282025	1.6462001	64
46	283739	1.6562	64
46	285459	1.6662	64
46	287161	1.6762	64
46	288869	1.6862	64
46	290577	1.6962	64
46	292297	1.7062	64
46	294011	1.7162	64
46	295725	1.7262	64
46	297433	1.7362	64
46	299153	1.7462	64
46	300855	1.7562	64
46	302575	1.7662	64
46	304277	1.7762	64
46	305997	1.7862	64
46	307705	1.7962	64
46	309419	1.8062	64
46	311133	1.8162	64
46	312859	1.8262	64
46	314567	1.8362	64
46	316269	1.8462	64
46	317983	1.8562	64
46	319685	1.8662	64
46	321399	1.8762	64
46	323119	1.8862	64
46	324833	1.8962001	64
46	326547	1.9062	64
46	328261	1.9162	64
46	329969	1.9262	64
46	331677	1.9362	64
46	333391	1.9462	64
46	335111	1.9562	64
46	336825	1.9662	64
46	338533	1.9762	64
46	340247	1.9862	64
46	341955	1.9962	64
47	0	0	0
47	1223	0.0062	0.000399
47	2919	0.0162	0.000399
47	4639	0.0262001	0.0003991
47	6353	0.0362001	0.0003991
47	8073	0.0462	0.000399
47	9781	0.0562	0.000399
47	11501	0.0662	0.000399
47	13203	0.0762001	0.0003991
47	14923	0.0862	0.000399
47	16631	0.0962	0.000399
47	18345	0.1062	0.000399
47	20053	0.1162	0.000399
47	21767	0.1262001	0.0003991
47	23481	0.1362	0.000399
47	25195	0.1462	0.000399
47	26909	0.1562001	0.0003991
47	28617	0.1662	0.000399
47	30331	0.1762	0.000399
47	32039	0.1862001	0.0003991
47	33753	0.1962001	0.0003991
47	35461	0.2062	0.000399
47	37175	0.2162	0.000399
47	38889	0.2262	0.000399
47	40609	0.2362	0.000399
47	42317	0.2462	0.000399
47	44025	0.2562	0.000399
47	45727	0.2662	0.000399
47	47447	0.2762	0.000399
47	49161	0.2862	0.000399
47	50875	0.2962001	0.0003991
47	52589	0.3062001	0.0003991
47	54297	0.3162	0.000399
47	56005	0.3262	0.000399
47	57725	0.3362	0.000399
47	59433	0.3462001	0.0003991
47	61141	0.3562001	0.0003991
47	62855	0.3662001	0.0003991
47	64563	0.3762	0.000399
47	66283	0.3862	0.000399
47	67997	0.3962	0.000399
47	69717	0.4062001	0.0003991
47	71419	0.4162001	0.0003991
47	73139	0.4262	0.000399
47	74841	0.4362	0.000399
47	76561	0.4462	0.000399
47	78269	0.4562	0.000399
47	79989	0.4662	0.000399
47	81691	0.4762	0.000399
47	83405	0.4862	0.000399
47	85113	0.4962	0.000399
47	86839	0.5062	0.000399
47	88541	0.5162	0.000399
47	90255	0.5262	0.000399
47	91969	0.5362	0.000399
47	93683	0.5462	0.000399
47	95391	0.5562001	0.0003991
47	97117	0.5662001	0.0003991
47	98825	0.5762001	0.0003991
47	100527	0.5862001	0.0003991
47	102241	0.5962	0.000399
47	103949	0.6062	0.000399
47	105663	0.6162	0.000399
47	107383	0.6262	0.000399
47	109097	0.6362	0.000399
47	110811	0.6462	0.000399
47	112519	0.6562	0.000399
47	114227	0.6662	0.000399
47	115935	0.6762001	0.0003991
47	117643	0.6862001	0.0003991
47	119363	0.6962001	0.0003991
47	121083	0.7062001	0.0003991
47	122797	0.7162	0.000399
47	124499	0.7262	0.000399
47	126207	0.7362	0.000399
47	127921	0.7462	0.000399
47	129635	0.7562	0.000399
47	131343	0.7662	0.000399
47	133057	0.7762	0.000399
47	134771	0.7862	0.000399
47	136479	0.7962001	0.0003991
47	138193	0.8062001	0.0003991
47	139907	0.8162001	0.0003991
47	141627	0.8262001	0.0003991
47	143335	0.8362001	0.0003991
47	145049	0.8462	0.000399
47	146751	0.8562	0.000399
47	148471	0.8662	0.000399
47	150185	0.8762	0.000399
47	151899	0.8862	0.000399
47	153613	0.8962	0.000399
47	155333	0.9062	0.000399
47	157029	0.9162	0.000399
47	158749	0.9262	0.000399
47	160451	0.9362	0.000399
47	162159	0.9462	0.000399
47	163879	0.9562001	0.0003991
47	165599	0.9662	0.000399
47	167307	0.9762	0.000399
47	169021	0.9862	0.000399
47	170741	0.9962	0.000399
47	172443	1.0062	0.000399
47	174157	1.0162	0.000399
47	175865	1.0262	0.000399
47	177579	1.0362	0.000399
47	179293	1.0462	0.000399
47	181007	1.0562	0.000399
47	182721	1.0662	0.000399
47	184435	1.0762001	0.0003991
47	186149	1.0862001	0.0003991
47	187851	1.0962001	0.0003991
47	189559	1.1062001	0.0003991
47	191279	1.1162001	0.0003991
47	192993	1.1262001	0.0003991
47	194701	1.1362001	0.0003991
47	196409	1.1462001	0.0003991
47	198123	1.1562	0.000399
47	199843	1.1662	0.000399
47	201557	1.1762	0.000399
47	203259	1.1862	0.000399
47	204973	1.1962	0.000399
47	206687	1.2062	0.000399
47	208389	1.2162	0.000399
47	210109	1.2262	0.000399
47	211823	1.2362	0.000399
47	213543	1.2462	0.000399
47	215245	1.2562	0.000399
47	216959	1.2662	0.000399
47	218661	1.2762	0.000399
47	220381	1.2862	0.000399
47	222101	1.2962	0.000399
47	223815	1.3062	0.000399
47	225517	1.3162001	0.0003991
47	227243	1.3262001	0.0003991
47	228945	1.3362001	0.0003991
47	230665	1.3462001	0.0003991
47	232367	1.3562001	0.0003991
47	234087	1.3662001	0.0003991
47	235795	1.3762001	0.0003991
47	237509	1.3862001	0.0003991
47	239217	1.3962001	0.0003991
47	240931	1.4062	0.000399
47	242651	1.4162	0.000399
47	244353	1.4262	0.000399
47	246067	1.4362	0.000399
47	247775	1.4462	0.000399
47	249495	1.4562	0.000399
47	251203	1.4662	0.000399
47	252917	1.4762	0.000399
47	254637	1.4862	0.000399
47	256351	1.4962	0.000399
47	258059	1.5062	0.000399
47	259767	1.5162	0.000399
47	261475	1.5262	0.000399
47	263195	1.5362	0.000399
47	264909	1.5462	0.000399
47	266623	1.5562001	0.0003991
47	268331	1.5662001	0.0003991
47	270039	1.5762001	0.0003991
47	271753	1.5862001	0.0003991
47	273461	1.5962001	0.0003991
47	275169	1.6062001	0.0003991
47	276889	1.6162001	0.0003991
47	278609	1.6262001	0.0003991
47	280311	1.6362001	0.0003991
47	282025	1.6462001	0.0003991
47	283739	1.6562	0.000399
47	285459	1.6662	0.000399
47	287161	1.6762	0.000399
47	288869	1.6862	0.000399
47	290577	1.6962	0.000399
47	292297	1.7062	0.000399
47	294011	1.7162	0.000399
47	295725	1.7262	0.000399
47	297433	1.7362	0.000399
47	299153	1.7462	0.000399
47	300855	1.7562	0.000399
47	302575	1.7662	0.000399
47	304277	1.7762	0.000399
47	305997	1.7862	0.000399
47	307705	1.7962	0.000399
47	309419	1.8062	0.000399
47	311133	1.8162	0.000399
47	312859	1.8262	0.000399
47	314567	1.8362	0.000399
47	316269	1.8462	0.000399
47	317983	1.8562	0.000399
47	319685	1.8662	0.000399
47	321399	1.8762	0.000399
47	323119	1.8862	0.000399
47	324833	1.8962001	0.0003991
47	326547	1.9062	0.000399
47	328261	1.9162	0.000399
47	329969	1.9262	0.000399
47	331677	1.9362	0.000399
47	333391	1.9462	0.000399
47	335111	1.9562	0.000399
47	336825	1.9662	0.000399
47	338533	1.9762	0.000399
47	340247	1.9862	0.000399
47	341955	1.9962	0.000399
48	0	0	0
49	0	0	0
50	0	0	0
51	0	0	0
52	0	0	0
53	0	0	0
54	0	0	0
55	0	0	0
56	0	0	0
57	0	0	0
58	0	0	0
59	0	0	0
60	0	0	0
61	0	0	0
62	0	0	0
63	0	0	0
64	0	0	0
65	0	0	0
66	0	0	0
67	0	0	0
68	0	0	0
69	0	0	0
70	0	0	0
71	0	0	0
72	0	0	0
73	0	0	0
74	0	0	0
75	0	0	0
76	0	0	0
76	1265	0.0064001	64
76	2967	0.0164001	64
76	4681	0.0264	64
76	6395	0.0364001	64
76	8115	0.0464	64
76	9823	0.0564	64
76	11543	0.0664	64
76	13251	0.0764	64
76	14965	0.0864001	64
76	16673	0.0964	64
76	18387	0.1064	64
76	20101	0.1164	64
76	21809	0.1264001	64
76	23529	0.1364	64
76	25237	0.1464	64
76	26957	0.1564001	64
76	28659	0.1664	64
76	30373	0.1764	64
76	32087	0.1864001	64
76	33801	0.1964	64
76	35503	0.2064	64
76	37217	0.2164	64
76	38931	0.2264	64
76	40651	0.2364	64
76	42359	0.2464	64
76	44073	0.2564001	64
76	45775	0.2664001	64
76	47489	0.2764	64
76	49203	0.2864	64
76	50917	0.2964	64
76	52631	0.3064	64
76	54345	0.3164001	64
76	56053	0.3264001	64
76	57767	0.3364	64
76	59475	0.3464	64
76	61183	0.3564	64
76	62897	0.3664	64
76	64611	0.3764001	64
76	66325	0.3864001	64
76	68045	0.3964	64
76	69759	0.4064	64
76	71461	0.4164	64
76	73181	0.4264	64
76	74889	0.4364	64
76	76603	0.4464	64
76	78311	0.4564	64
76	80031	0.4664	64
76	81733	0.4764	64
76	83453	0.4864	64
76	85161	0.4964	64
76	86881	0.5064	64
76	88583	0.5164	64
76	90297	0.5264	64
76	92017	0.5364	64
76	93725	0.5464	64
76	95439	0.5564	64
76	97159	0.5664	64
76	98867	0.5764001	64
76	100569	0.5864001	64
76	102289	0.5964001	64
76	103997	0.6064001	64
76	105711	0.6164	64
76	107425	0.6264	64
76	109139	0.6364	64
76	110853	0.6464	64
76	112561	0.6564	64
76	114269	0.6664	64
76	115983	0.6764	64
76	117685	0.6864	64
76	119405	0.6964001	64
76	121125	0.7064001	64
76	122839	0.7164001	64
76	124541	0.7264001	64
76	126255	0.7364001	64
76	127969	0.7464	64
76	129677	0.7564	64
76	131385	0.7664	64
76	133099	0.7764	64
76	134813	0.7864	64
76	136527	0.7964	64
76	138235	0.8064	64
76	139955	0.8164001	64
76	141669	0.8264001	64
76	143377	0.8364001	64
76	145091	0.8464	64
76	146799	0.8564	64
76	148513	0.8664	64
76	150227	0.8764	64
76	151941	0.8864	64
76	153655	0.8964	64
76	155375	0.9064	64
76	157077	0.9164	64
76	158797	0.9264	64
76	160493	0.9364	64
76	162201	0.9464	64
76	163927	0.9564	64
76	165641	0.9664	64
76	167355	0.9764	64
76	169063	0.9864001	64
76	170783	0.9964	64
76	172485	1.0064	64
76	174199	1.0164	64
76	175913	1.0264	64
76	177627	1.0364	64
76	179335	1.0464	64
76	181049	1.0564	64
76	182763	1.0664	64
76	184477	1.0764	64
76	186191	1.0864	64
76	187899	1.0964	64
76	189601	1.1064001	64
76	191321	1.1164001	64
76	193035	1.1264001	64
76	194743	1.1364001	64
76	196457	1.1464001	64
76	198171	1.1564001	64
76	199891	1.1664001	64
76	201599	1.1764	64
76	203301	1.1864	64
76	205015	1.1964	64
76	206729	1.2064	64
76	208437	1.2164	64
76	210151	1.2264	64
76	211871	1.2364	64
76	213585	1.2464	64
76	215293	1.2564	64
76	217001	1.2664	64
76	218709	1.2764	64
76	220423	1.2864	64
76	222143	1.2964	64
76	223857	1.3064	64
76	225559	1.3164	64
76	227285	1.3264	64
76	228993	1.3364	64
76	230707	1.3464001	64
76	232409	1.3564001	64
76	234129	1.3664001	64
76	235843	1.3764001	64
76	237551	1.3864001	64
76	239265	1.3964001	64
76	240973	1.4064001	64
76	242693	1.4164001	64
76	244395	1.4264	64
76	246109	1.4364	64
76	247823	1.4464	64
76	249543	1.4564	64
76	251245	1.4664	64
76	252965	1.4764	64
76	254679	1.4864	64
76	256393	1.4964	64
76	258101	1.5064	64
76	259815	1.5164	64
76	261517	1.5264	64
76	263237	1.5364	64
76	264951	1.5464	64
76	266665	1.5564	64
76	268373	1.5664	64
76	270087	1.5764001	64
76	271801	1.5864001	64
76	273503	1.5964001	64
76	275211	1.6064001	64
76	276931	1.6164001	64
76	278651	1.6264001	64
76	280359	1.6364001	64
76	282067	1.6464001	64
76	283787	1.6564001	64
76	285501	1.6664001	64
76	287203	1.6764	64
76	288911	1.6864	64
76	290625	1.6964	64
76	292339	1.7064	64
76	294053	1.7164	64
76	295767	1.7264	64
76	297475	1.7364	64
76	299195	1.7464	64
76	300903	1.7564	64
76	302617	1.7664	64
76	304319	1.7764	64
76	306039	1.7864	64
76	307753	1.7964	64
76	309467	1.8064	64
76	311181	1.8164	64
76	312901	1.8264	64
76	314609	1.8364	64
76	316311	1.8464	64
76	318025	1.8564	64
76	319733	1.8664	64
76	321447	1.8764	64
76	323161	1.8864	64
76	324875	1.8964	64
76	326589	1.9064	64
76	328309	1.9164001	64
76	330011	1.9264	64
76	331725	1.9364	64
76	333433	1.9464	64
76	335153	1.9564	64
76	336867	1.9664	64
76	338575	1.9764	64
76	340289	1.9864	64
76	342003	1.9964	64
77	0	0	0
77	1265	0.0064001	0.0005991
77	2967	0.0164001	0.0005991
77	4681	0.0264	0.000599
77	6395	0.0364001	0.0005991
77	8115	0.0464	0.000599
77	9823	0.0564	0.000599
77	11543	0.0664	0.000599
77	13251	0.0764	0.000599
77	14965	0.0864001	0.0005991
77	16673	0.0964	0.000599
77	18387	0.1064	0.000599
77	20101	0.1164	0.000599
77	21809	0.1264001	0.0005991
77	23529	0.1364	0.000599
77	25237	0.1464	0.000599
77	26957	0.1564001	0.0005991
77	28659	0.1664	0.000599
77	30373	0.1764	0.000599
77	32087	0.1864001	0.0005991
77	33801	0.1964	0.000599
77	35503	0.2064	0.000599
77	37217	0.2164	0.000599
77	38931	0.2264	0.000599
77	40651	0.2364	0.000599
77	42359	0.2464	0.000599
77	44073	0.2564001	0.0005991
77	45775	0.2664001	0.0005991
77	47489	0.2764	0.000599
77	49203	0.2864	0.000599
77	50917	0.2964	0.000599
77	52631	0.3064	0.000599
77	54345	0.3164001	0.0005991
77	56053	0.3264001	0.0005991
77	57767	0.3364	0.000599
77	59475	0.3464	0.000599
77	61183	0.3564	0.000599
77	62897	0.3664	0.000599
77	64611	0.3764001	0.0005991
77	66325	0.3864001	0.0005991
77	68045	0.3964	0.000599
77	69759	0.4064	0.000599
77	71461	0.4164	0.000599
77	73181	0.4264	0.000599
77	74889	0.4364	0.000599
77	76603	0.4464	0.000599
77	78311	0.4564	0.000599
77	80031	0.4664	0.000599
77	81733	0.4764	0.000599
77	83453	0.4864	0.000599
77	85161	0.4964	0.000599
77	86881	0.5064	0.000599
77	88583	0.5164	0.000599
77	90297	0.5264	0.000599
77	92017	0.5364	0.000599
77	93725	0.5464	0.000599
77	95439	0.5564	0.000599
77	97159	0.5664	0.000599
77	98867	0.5764001	0.0005991
77	100569	0.5864001	0.0005991
77	102289	0.5964001	0.0005991
77	103997	0.6064001	0.0005991
77	105711	0.6164	0.000599
77	107425	0.6264	0.000599
77	109139	0.6364	0.000599
77	110853	0.6464	0.000599
77	112561	0.6564	0.000599
77	114269	0.6664	0.000599
77	115983	0.6764	0.000599
77	117685	0.6864	0.000599
77	119405	0.6964001	0.0005991
77	121125	0.7064001	0.0005991
77	122839	0.7164001	0.0005991
77	124541	0.7264001	0.0005991
77	126255	0.7364001	0.0005991
77	127969	0.7464	0.000599
77	129677	0.7564	0.000599
77	131385	0.7664	0.000599
77	133099	0.7764	0.000599
77	134813	0.7864	0.000599
77	136527	0.7964	0.000599
77	138235	0.8064	0.000599
77	139955	0.8164001	0.0005991
77	141669	0.8264001	0.0005991
77	143377	0.8364001	0.0005991
77	145091	0.8464	0.000599
77	146799	0.8564	0.000599
77	148513	0.8664	0.000599
77	150227	0.8764	0.000599
77	151941	0.8864	0.000599
77	153655	0.8964	0.000599
77	155375	0.9064	0.000599
77	157077	0.9164	0.000599
77	158797	0.9264	0.000599
77	160493	0.9364	0.000599
77	162201	0.9464	0.000599
77	163927	0.9564	0.000599
77	165641	0.9664	0.000599
77	167355	0.9764	0.000599
77	169063	0.9864001	0.0005991
77	170783	0.9964	0.000599
77	172485	1.0064	0.000599
77	174199	1.0164	0.000599
77	175913	1.0264	0.000599
77	177627	1.0364	0.000599
77	179335	1.0464	0.000599
77	181049	1.0564	0.000599
77	182763	1.0664	0.000599
77	184477	1.0764	0.000599
77	186191	1.0864	0.000599
77	187899	1.0964	0.000599
77	189601	1.1064001	0.0005991
77	191321	1.1164001	0.0005991
77	193035	1.1264001	0.0005991
77	194743	1.1364001	0.0005991
77	196457	1.1464001	0.0005991
77	198171	1.1564001	0.0005991
77	199891	1.1664001	0.0005991
77	201599	1.1764	0.000599
77	203301	1.1864	0.000599
77	205015	1.1964	0.000599
77	206729	1.2064	0.000599
77	208437	1.2164	0.000599
77	210151	1.2264	0.000599
77	211871	1.2364	0.000599
77	213585	1.2464	0.000599
77	215293	1.2564	0.000599
77	217001	1.2664	0.000599
77	218709	1.2764	0.000599
77	220423	1.2864	0.000599
77	222143	1.2964	0.000599
77	223857	1.3064	0.000599
77	225559	1.3164	0.000599
77	227285	1.3264	0.000599
77	228993	1.3364	0.000599
77	230707	1.3464001	0.0005991
77	232409	1.3564001	0.0005991
77	234129	1.3664001	0.0005991
77	235843	1.3764001	0.0005991
77	237551	1.3864001	0.0005991
77	239265	1.3964001	0.0005991
77	240973	1.4064001	0.0005991
77	242693	1.4164001	0.0005991
77	244395	1.4264	0.000599
77	246109	1.4364	0.000599
77	247823	1.4464	0.000599
77	249543	1.4564	0.000599
77	251245	1.4664	0.000599
77	252965	1.4764	0.000599
77	254679	1.4864	0.000599
77	256393	1.4964	0.000599
77	258101	1.5064	0.000599
77	259815	1.5164	0.000599
77	261517	1.5264	0.000599
77	263237	1.5364	0.000599
77	264951	1.5464	0.000599
77	266665	1.5564	0.000599
77	268373	1.5664	0.000599
77	270087	1.5764001	0.0005991
77	271801	1.5864001	0.0005991
77	273503	1.5964001	0.0005991
77	275211	1.6064001	0.0005991
77	276931	1.6164001	0.0005991
77	278651	1.6264001	0.0005991
77	280359	1.6364001	0.0005991
77	282067	1.6464001	0.0005991
77	283787	1.6564001	0.0005991
77	285501	1.6664001	0.0005991
77	287203	1.6764	0.000599
77	288911	1.6864	0.000599
77	290625	1.6964	0.000599
77	292339	1.7064	0.000599
77	294053	1.7164	0.000599
77	295767	1.7264	0.000599
77	297475	1.7364	0.000599
77	299195	1.7464	0.000599
77	300903	1.7564	0.000599
77	302617	1.7664	0.000599
77	304319	1.7764	0.000599
77	306039	1.7864	0.000599
77	307753	1.7964	0.000599
77	309467	1.8064	0.000599
77	311181	1.8164	0.000599
77	312901	1.8264	0.000599
77	314609	1.8364	0.000599
77	316311	1.8464	0.000599
77	318025	1.8564	0.000599
77	319733	1.8664	0.000599
77	321447	1.8764	0.000599
77	323161	1.8864	0.000599
77	324875	1.8964	0.000599
77	326589	1.9064	0.000599
77	328309	1.9164001	0.0005991
77	330011	1.9264	0.000599
77	331725	1.9364	0.000599
77	333433	1.9464	0.000599
77	335153	1.9564	0.000599
77	336867	1.9664	0.000599
77	338575	1.9764	0.000599
77	340289	1.9864	0.000599
77	342003	1.9964	0.000599
78	0	0	0
79	0	0	0
80	0	0	0
81	0	0	0
82	0	0	0
83	0	0	0
84	0	0	0
85	0	0	0
86	0	0	0
87	0	0	0
88	0	0	0
89	0	0	0
90	0	0	0
91	0	0	0
92	0	0	0
93	0	0	0
94	0	0	0
95	0	0	0
96	0	0	0
96	21	0	0
96	1847	0.01	0
96	3555	0.02	0
96	5275	0.03	0
96	6983	0.04	0
96	8691	0.05	0
96	10411	0.06	0
96	12137	0.07	0
96	13833	0.08	0
96	15547	0.09	0
96	17261	0.1	0
96	18969	0.11	0
96	20689	0.12	0
96	22397	0.13	0
96	24111	0.14	0
96	25825	0.15	0
96	27539	0.16	0
96	29247	0.17	0
96	30955	0.18	0
96	32669	0.19	0
96	34383	0.2	0
96	36091	0.21	0
96	37799	0.22	0
96	39519	0.23	0
96	41239	0.24	0
96	42947	0.25	0
96	44655	0.26	0
96	46363	0.27	0
96	48083	0.28	0
96	49785	0.29	0
96	51499	0.3	0
96	53219	0.31	0
96	54933	0.32	0
96	56641	0.33	0
96	58355	0.34	0
96	60051	0.35	0
96	61771	0.36	0
96	63491	0.37	0
96	65205	0.38	0
96	66913	0.39	0
96	68633	0.4	0
96	70335	0.41	0
96	72049	0.42	0
96	73763	0.43	0
96	75483	0.44	0
96	77191	0.45	0
96	78893	0.46	0
96	80607	0.47	0
96	82321	0.48	0
96	84041	0.49	0
96	85749	0.5	0
96	87463	0.51	0
96	89171	0.52	0
96	90879	0.53	0
96	92599	0.54	0
96	94313	0.55	0
96	96027	0.56	0
96	97741	0.57	0
96	99455	0.58	0
96	101157	0.59	0
96	102871	0.6	0
96	104585	0.61	0
96	106299	0.62	0
96	108013	0.63	0
96	109721	0.64	0
96	111435	0.65	0
96	113155	0.66	0
96	114851	0.67	0
96	116565	0.68	0
96	118279	0.69	0
96	119999	0.7	0
96	121701	0.71	0
96	123421	0.72	0
96	125135	0.73	0
96	126843	0.74	0
96	128551	0.75	0
96	130265	0.76	0
96	131967	0.77	0
96	133687	0.78	0
96	135401	0.79	0
96	137121	0.8	0
96	138829	0.81	0
96	140537	0.82	0
96	142251	0.83	0
96	143965	0.84	0
96	145673	0.85	0
96	147387	0.86	0
96	149101	0.87	0
96	150809	0.88	0
96	152523	0.89	0
96	154243	0.9	0
96	155963	0.91	0
96	157659	0.92	0
96	159379	0.93	0
96	161081	0.94	0
96	162789	0.95	0
96	164509	0.96	0
96	166229	0.97	0
96	167937	0.98	0
96	169651	0.99	0
96	171365	1	0
96	173073	1.01	0
96	174787	1.02	0
96	176501	1.03	0
96	178209	1.04	0
96	179923	1.05	0
96	181637	1.06	0
96	183345	1.07	0
96	185065	1.08	0
96	186773	1.09	0
96	188487	1.1	0
96	190195	1.11	0
96	191909	1.12	0
96	193611	1.13	0
96	195331	1.14	0
96	197045	1.15	0
96	198765	1.16	0
96	200473	1.17	0
96	202187	1.18	0
96	203877	1.19	0
96	205597	1.2	0
96	207317	1.21	0
96	209031	1.22	0
96	210739	1.23	0
96	212459	1.24	0
96	214161	1.25	0
96	215881	1.26	0
96	217589	1.27	0
96	219297	1.28	0
96	221011	1.29	0
96	222725	1.3	0
96	224433	1.31	0
96	226153	1.32	0
96	227873	1.33	0
96	229575	1.34	0
96	231295	1.35	0
96	233003	1.36	0
96	234711	1.37	0
96	236425	1.38	0
96	238145	1.39	0
96	239847	1.4	0
96	241555	1.41	0
96	243275	1.42	0
96	244989	1.43	0
96	246697	1.44	0
96	248405	1.45	0
96	250125	1.46	0
96	251839	1.47	0
96	253547	1.48	0
96	255267	1.49	0
96	256981	1.5	0
96	258683	1.51	0
96	260397	1.52	0
96	262105	1.53	0
96	263825	1.54	0
96	265533	1.55	0
96	267247	1.56	0
96	268967	1.57	0
96	270675	1.58	0
96	272383	1.59	0
96	274097	1.6	0
96	275793	1.61	0
96	277513	1.62	0
96	279239	1.63	0
96	280953	1.64	0
96	282655	1.65	0
96	284369	1.66	0
96	286077	1.67	0
96	287791	1.68	0
96	289499	1.69	0
96	291213	1.7	0
96	292927	1.71	0
96	294641	1.72	0
96	296343	1.73	0
96	298063	1.74	0
96	299783	1.75	0
96	301491	1.76	0
96	303205	1.77	0
96	304907	1.78	0
96	306621	1.79	0
96	308341	1.8	0
96	310055	1.81	0
96	311769	1.82	0
96	313483	1.83	0
96	315191	1.84	0
96	316899	1.85	0
96	318607	1.86	0
96	320315	1.87	0
96	322035	1.88	0
96	323749	1.89	0
96	325463	1.9	0
96	327171	1.91	0
96	328897	1.92	0
96	330599	1.93	0
96	332313	1.94	0
96	334021	1.95	0
96	335741	1.96	0
96	337443	1.97	0
96	339163	1.98	0
96	340877	1.99	0
96	342591	2	0
97	0	0	0
98	0	0	0
99	0	0	0
100	155	0	0
100	190	0.0002001	1
100	232	0.0004001	0
100	262	0.0006	1
100	292	0.0008001	0
100	322	0.001	1
100	358	0.0012	0
100	388	0.0014	1
100	424	0.0016001	0
100	460	0.0018	1
100	490	0.002	0
100	526	0.0022001	1
100	562	0.0024	0
100	598	0.0026	1
100	634	0.0028	0
100	664	0.0030001	1
100	694	0.0032001	0
100	724	0.0034	1
100	760	0.0036	0
100	790	0.0038	1
100	826	0.004	0
100	856	0.0042	1
100	886	0.0044001	0
100	922	0.0046	1
100	952	0.0048	0
100	982	0.005	1
100	1018	0.0052	0
100	1054	0.0054001	1
100	1084	0.0056	0
100	1114	0.0058	1
100	1158	0.0060001	0
100	1200	0.0062	1
100	1248	0.0064001	0
100	1303	0.0066	1
100	1334	0.0068	0
100	1370	0.007	1
100	1400	0.0072	0
100	1436	0.0074	1
100	1472	0.0076	0
100	1502	0.0078	1
100	1532	0.008	0
100	1562	0.0082001	1
100	1598	0.0084	0
100	1628	0.0086	1
100	1664	0.0088001	0
100	1694	0.009	1
100	1724	0.0092	0
100	1760	0.0094001	1
100	1790	0.0096	0
100	1820	0.0098	1
100	1858	0.01	0
100	1898	0.0102001	1
100	1940	0.0104	0
100	1970	0.0106	1
100	2006	0.0108001	0
100	2036	0.011	1
100	2066	0.0112	0
100	2102	0.0114001	1
100	2132	0.0116	0
100	2168	0.0118	1
100	2198	0.0120001	0
100	2228	0.0122001	1
100	2264	0.0124	0
100	2294	0.0126	1
100	2324	0.0128001	0
100	2354	0.013	1
100	2390	0.0132	0
100	2420	0.0134	1
100	2456	0.0136	0
100	2486	0.0138	1
100	2516	0.014	0
100	2552	0.0142001	1
100	2588	0.0144	0
100	2618	0.0146	1
100	2654	0.0148	0
100	2684	0.015	1
100	2714	0.0152	0
100	2744	0.0154	1
100	2780	0.0156	0
100	2816	0.0158001	1
100	2860	0.016	0
100	2902	0.0162	1
100	2944	0.0164001	0
100	3005	0.0166	1
100	3036	0.0168	0
100	3066	0.0170001	1
100	3102	0.0172	0
100	3138	0.0174	1
100	3168	0.0176001	0
100	3198	0.0178	1
100	3234	0.018	0
100	3264	0.0182001	1
100	3300	0.0184	0
100	3336	0.0186	1
100	3366	0.0188001	0
100	3402	0.019	1
100	3432	0.0192	0
100	3468	0.0194001	1
100	3504	0.0196	0
100	3534	0.0198001	1
100	3566	0.02	0
100	3606	0.0202	1
100	3648	0.0204001	0
100	3678	0.0206	1
100	3714	0.0208	0
100	3744	0.0210001	1
100	3774	0.0212	0
100	3810	0.0214	1
100	3840	0.0216001	0
100	3870	0.0218	1
100	3906	0.022	0
100	3936	0.0222001	1
100	3972	0.0224	0
100	4002	0.0226	1
100	4038	0.0228001	0
100	4068	0.023	1
100	4098	0.0232	0
100	4134	0.0234001	1
100	4164	0.0236	0
100	4200	0.0238001	1
100	4230	0.0240001	0
100	4266	0.0242	1
100	4302	0.0244001	0
100	4338	0.0246	1
100	4368	0.0248	0
100	4398	0.0250001	1
100	4434	0.0252	0
100	4464	0.0254	1
100	4500	0.0256001	0
100	4530	0.0258	1
100	4568	0.026	0
100	4616	0.0262001	1
100	4664	0.0264	0
100	4719	0.0266	1
100	4756	0.0268	0
100	4792	0.027	1
100	4822	0.0272	0
100	4852	0.0274	1
100	4888	0.0276	0
100	4918	0.0278	1
100	4954	0.028	0
100	4984	0.0282	1
100	5014	0.0284001	0
100	5050	0.0286	1
100	5080	0.0288	0
100	5116	0.029	1
100	5152	0.0292	0
100	5188	0.0294	1
100	5218	0.0296	0
100	5248	0.0298	1
100	5286	0.03	0
100	5326	0.0302	1
100	5368	0.0304	0
100	5398	0.0306	1
100	5428	0.0308	0
100	5464	0.031	1
100	5494	0.0312	0
100	5530	0.0314	1
100	5566	0.0316001	0
100	5596	0.0318001	1
100	5626	0.032	0
100	5656	0.0322	1
100	5692	0.0324	0
100	5728	0.0326	1
100	5764	0.0328001	0
100	5794	0.0330001	1
100	5824	0.0332	0
100	5860	0.0334	1
100	5890	0.0336	0
100	5920	0.0338	1
100	5956	0.0340001	0
100	5986	0.0342	1
100	6022	0.0344	0
100	6052	0.0346	1
100	6088	0.0348	0
100	6118	0.0350001	1
100	6148	0.0352001	0
100	6184	0.0354	1
100	6214	0.0356	0
100	6250	0.0358	1
100	6288	0.036	0
100	6330	0.0362001	1
100	6378	0.0364001	0
100	6433	0.0366	1
100	6464	0.0368	0
100	6494	0.037	1
100	6530	0.0372	0
100	6560	0.0374001	1
100	6596	0.0376001	0
100	6632	0.0378	1
100	6662	0.038	0
100	6698	0.0382	1
100	6734	0.0384	0
100	6764	0.0386001	1
100	6800	0.0388001	0
100	6830	0.039	1
100	6860	0.0392	0
100	6890	0.0394	1
100	6926	0.0396001	0
100	6956	0.0398001	1
100	6994	0.04	0
100	7034	0.0402	1
100	7070	0.0404	0
100	7106	0.0406	1
100	7136	0.0408001	0
100	7172	0.0410001	1
100	7208	0.0412	0
100	7244	0.0414	1
100	7274	0.0416	0
100	7304	0.0418	1
100	7340	0.0420001	0
100	7376	0.0422001	1
100	7412	0.0424	0
100	7442	0.0426	1
100	7472	0.0428	0
100	7508	0.043	1
100	7538	0.0432001	0
100	7574	0.0434001	1
100	7610	0.0436	0
100	7646	0.0438	1
100	7676	0.044	0
100	7706	0.0442001	1
100	7742	0.0444001	0
100	7772	0.0446	1
100	7808	0.0448	0
100	7838	0.045	1
100	7868	0.0452	0
100	7904	0.0454001	1
100	7934	0.0456001	0
100	7964	0.0458	1
100	8008	0.046	0
100	8050	0.0462	1
100	8098	0.0464	0
100	8153	0.0466001	1
100	8190	0.0468001	0
100	8220	0.047	1
100	8250	0.0472	0
100	8286	0.0474	1
100	8316	0.0476001	0
100	8352	0.0478001	1
100	8382	0.0480001	0
100	8412	0.0482	1
100	8448	0.0484	0
100	8478	0.0486	1
100	8508	0.0488001	0
100	8538	0.0490001	1
100	8574	0.0492	0
100	8604	0.0494	1
100	8640	0.0496	0
100	8670	0.0498	1
100	8702	0.0500001	0
100	8748	0.0502001	1
100	8790	0.0504	0
100	8820	0.0506	1
100	8856	0.0508	0
100	8892	0.051	1
100	8922	0.0512001	0
100	8952	0.0514001	1
100	8988	0.0516	0
100	9018	0.0518	1
100	9054	0.052	0
100	9090	0.0522001	1
100	9120	0.0524001	0
100	9156	0.0526	1
100	9186	0.0528	0
100	9216	0.053	1
100	9252	0.0532	0
100	9288	0.0534	1
100	9318	0.0536	0
100	9348	0.0538	1
100	9384	0.054	0
100	9414	0.0542	1
100	9450	0.0544	0
100	9480	0.0546	1
100	9510	0.0548	0
100	9546	0.055	1
100	9576	0.0552	0
100	9612	0.0554	1
100	9648	0.0556	0
100	9678	0.0558	1
100	9716	0.056	0
100	9758	0.0562	1
100	9806	0.0564	0
100	9861	0.0566	1
100	9898	0.0568001	0
100	9928	0.057	1
100	9958	0.0572	0
100	9994	0.0574	1
100	10024	0.0576	0
100	10060	0.0578	1
100	10096	0.058	0
100	10126	0.0582	1
100	10162	0.0584	0
100	10192	0.0586	1
100	10228	0.0588	0
100	10258	0.059	1
100	10288	0.0592	0
100	10324	0.0594	1
100	10354	0.0596	0
100	10390	0.0598	1
100	10422	0.06	0
100	10462	0.0602	1
100	10504	0.0604	0
100	10540	0.0606	1
100	10570	0.0608	0
100	10600	0.061	1
100	10636	0.0612	0
100	10666	0.0614001	1
100	10702	0.0616	0
100	10732	0.0618	1
100	10762	0.062	0
100	10798	0.0622	1
100	10834	0.0624	0
100	10864	0.0626	1
100	10900	0.0628	0
100	10930	0.063	1
100	10960	0.0632001	0
100	10990	0.0634	1
100	11026	0.0636001	0
100	11056	0.0638	1
100	11092	0.064	0
100	11128	0.0642	1
100	11158	0.0644	0
100	11194	0.0646001	1
100	11224	0.0648	0
100	11254	0.065	1
100	11290	0.0652	0
100	11326	0.0654	1
100	11356	0.0656001	0
100	11386	0.0658	1
100	11430	0.0660001	0
100	11478	0.0662	1
100	11526	0.0664	0
100	11581	0.0666001	1
100	11612	0.0668	0
100	11648	0.0670001	1
100	11678	0.0672	0
100	11714	0.0674	1
100	11750	0.0676	0
100	11780	0.0678	1
100	11810	0.0680001	0
100	11840	0.0682	1
100	11876	0.0684	0
100	11912	0.0686	1
100	11948	0.0688	0
100	11984	0.0690001	1
100	12014	0.0692	0
100	12050	0.0694001	1
100	12080	0.0696	0
100	12110	0.0698	1
100	12148	0.0700001	0
100	12188	0.0702	1
100	12230	0.0704001	0
100	12260	0.0706	1
100	12296	0.0708	0
100	12326	0.071	1
100	12356	0.0712	0
100	12392	0.0714001	1
100	12422	0.0716	0
100	12458	0.0718001	1
100	12488	0.072	0
100	12518	0.0722	1
100	12554	0.0724001	0
100	12584	0.0726	1
100	12614	0.0728001	0
100	12644	0.073	1
100	12680	0.0732	0
100	12710	0.0734001	1
100	12746	0.0736	0
100	12776	0.0738001	1
100	12806	0.074	0
100	12842	0.0742	1
100	12872	0.0744	0
100	12908	0.0746	1
100	12944	0.0748001	0
100	12974	0.075	1
100	13004	0.0752001	0
100	13034	0.0754	1
100	13070	0.0756	0
100	13100	0.0758001	1
100	13144	0.076	0
100	13186	0.0762001	1
100	13228	0.0764	0
100	13289	0.0766	1
100	13320	0.0768	0
100	13350	0.077	1
100	13386	0.0772001	0
100	13422	0.0774	1
100	13452	0.0776001	0
100	13482	0.0778	1
100	13518	0.078	0
100	13548	0.0782001	1
100	13584	0.0784	0
100	13614	0.0786001	1
100	13644	0.0788	0
100	13680	0.079	1
100	13710	0.0792001	0
100	13746	0.0794	1
100	13782	0.0796001	0
100	13812	0.0798	1
100	13844	0.08	0
100	13884	0.0802	1
100	13926	0.0804	0
100	13956	0.0806001	1
100	13992	0.0808	0
100	14022	0.0810001	1
100	14052	0.0812	0
100	14088	0.0814	1
100	14118	0.0816001	0
100	14154	0.0818	1
100	14190	0.0820001	0
100	14220	0.0822	1
100	14256	0.0824	0
100	14286	0.0826001	1
100	14322	0.0828	0
100	14358	0.0830001	1
100	14388	0.0832	0
100	14424	0.0834	1
100	14454	0.0836	0
100	14490	0.0838	1
100	14520	0.0840001	0
100	14550	0.0842	1
100	14586	0.0844001	0
100	14616	0.0846	1
100	14646	0.0848	0
100	14676	0.0850001	1
100	14712	0.0852	0
100	14742	0.0854001	1
100	14778	0.0856	0
100	14814	0.0858	1
100	14852	0.086	0
100	14900	0.0862	1
100	14948	0.0864001	0
100	15003	0.0866	1
100	15040	0.0868001	0
100	15070	0.087	1
100	15100	0.0872	0
100	15130	0.0874001	1
100	15166	0.0876	0
100	15196	0.0878001	1
100	15232	0.088	0
100	15262	0.0882	1
100	15292	0.0884001	0
100	15328	0.0886	1
100	15358	0.0888001	0
100	15388	0.089	1
100	15424	0.0892	0
100	15460	0.0894	1
100	15490	0.0896	0
100	15520	0.0898001	1
100	15558	0.09	0
100	15598	0.0902001	1
100	15640	0.0904	0
100	15676	0.0906	1
100	15706	0.0908001	0
100	15742	0.091	1
100	15772	0.0912001	0
100	15808	0.0914	1
100	15844	0.0916	0
100	15874	0.0918001	1
100	15904	0.092	0
100	15934	0.0922001	1
100	15970	0.0924	0
100	16000	0.0926001	1
100	16036	0.0928	0
100	16066	0.093	1
100	16096	0.0932001	0
100	16132	0.0934	1
100	16162	0.0936001	0
100	16192	0.0938	1
100	16228	0.094	0
100	16258	0.0942001	1
100	16294	0.0944	0
100	16324	0.0946001	1
100	16360	0.0948	0
100	16396	0.095	1
100	16426	0.0952001	0
100	16462	0.0954	1
100	16492	0.0956001	0
100	16528	0.0958	1
100	16566	0.0960001	0
100	16608	0.0962	1
100	16656	0.0964	0
100	16711	0.0966001	1
100	16742	0.0968	0
100	16772	0.0970001	1
100	16808	0.0972	0
100	16838	0.0974	1
100	16874	0.0976001	0
100	16904	0.0978	1
100	16934	0.0980001	0
100	16970	0.0982	1
100	17006	0.0984	0
100	17036	0.0986	1
100	17072	0.0988	0
100	17102	0.0990001	1
100	17132	0.0992	0
100	17162	0.0994001	1
100	17198	0.0996	0
100	17234	0.0998	1
100	17272	0.1000001	0
100	17312	0.1002	1
100	17348	0.1004001	0
100	17384	0.1006	1
100	17414	0.1008	0
100	17444	0.1010001	1
100	17480	0.1012	0
100	17516	0.1014001	1
100	17546	0.1016	0
100	17576	0.1018001	1
100	17612	0.102	0
100	17642	0.1022	1
100	17678	0.1024001	0
100	17714	0.1026	1
100	17744	0.1028001	0
100	17780	0.103	1
100	17810	0.1032	0
100	17846	0.1034001	1
100	17882	0.1036	0
100	17918	0.1038001	1
100	17948	0.104	0
100	17978	0.1042	1
100	18014	0.1044001	0
100	18044	0.1046	1
100	18080	0.1048001	0
100	18110	0.105	1
100	18140	0.1052	0
100	18176	0.1054	1
100	18206	0.1056	0
100	18236	0.1058	1
100	18280	0.106	0
100	18322	0.1062	1
100	18370	0.1064	0
100	18425	0.1066	1
100	18462	0.1068	0
100	18492	0.107	1
100	18522	0.1072	0
100	18558	0.1074	1
100	18588	0.1076	0
100	18624	0.1078001	1
100	18654	0.108	0
100	18690	0.1082	1
100	18726	0.1084	0
100	18756	0.1086	1
100	18786	0.1088	0
100	18816	0.109	1
100	18852	0.1092	0
100	18882	0.1094	1
100	18918	0.1096	0
100	18948	0.1098	1
100	18980	0.11	0
100	19026	0.1102	1
100	19068	0.1104	0
100	19098	0.1106	1
100	19134	0.1108	0
100	19170	0.111	1
100	19200	0.1112	0
100	19230	0.1114	1
100	19266	0.1116	0
100	19296	0.1118	1
100	19332	0.112	0
100	19362	0.1122	1
100	19392	0.1124	0
100	19428	0.1126	1
100	19458	0.1128	0
100	19488	0.113	1
100	19524	0.1132	0
100	19560	0.1134	1
100	19590	0.1136001	0
100	19620	0.1138	1
100	19656	0.114	0
100	19686	0.1142	1
100	19722	0.1144	0
100	19752	0.1146	1
100	19782	0.1148	0
100	19818	0.115	1
100	19848	0.1152	0
100	19884	0.1154	1
100	19920	0.1156	0
100	19950	0.1158	1
100	19988	0.116	0
100	20030	0.1162	1
100	20078	0.1164	0
100	20139	0.1166	1
[...]
181	175972	1.026729951	0
181	177641	1.036439951	73
181	177686	1.036729951	0
181	179349	1.046439951	73
181	179400	1.046729951	0
181	181063	1.056439951	73
181	181108	1.056729951	0
181	182777	1.066439951	73
181	182828	1.066729951	0
181	184491	1.076439951	73
181	184542	1.076729951	0
181	186205	1.086439951	73
181	186250	1.086729951	0
181	187913	1.096439951	73
181	187958	1.096729951	0
181	189615	1.106440051	73
181	189666	1.106730051	0
181	191335	1.116440051	73
181	191380	1.116730051	0
181	193049	1.126440051	73
181	193100	1.126730051	0
181	194757	1.136440051	73
181	194808	1.136730051	0
181	196471	1.146440051	73
181	196516	1.146730051	0
181	198185	1.156440051	73
181	198230	1.156730051	0
181	199905	1.166440051	73
181	199956	1.166730051	0
181	201613	1.176439951	73
181	201658	1.176729951	0
181	203315	1.186439951	73
181	203366	1.186729951	0
181	205029	1.196439951	73
181	205080	1.196729951	0
181	206743	1.206439951	73
181	206788	1.206729951	0
181	208451	1.216439951	73
181	208496	1.216729951	0
181	210165	1.226439951	73
181	210216	1.226729951	0
181	211885	1.236439951	73
181	211930	1.236729951	0
181	213599	1.246439951	73
181	213650	1.246729951	0
181	215307	1.256439951	73
181	215358	1.256729951	0
181	217015	1.266439951	73
181	217060	1.266729951	0
181	218723	1.276439951	73
181	218768	1.276729951	0
181	220437	1.286439951	73
181	220488	1.286729951	0
181	222157	1.296439951	73
181	222202	1.296729951	0
181	223871	1.306439951	73
181	223922	1.306729951	0
181	225573	1.316439951	73
181	225624	1.316729951	0
181	227299	1.326439951	73
181	227344	1.326729951	0
181	229007	1.336439951	73
181	229052	1.336729951	0
181	230721	1.346440051	73
181	230772	1.346730051	0
181	232423	1.356440051	73
181	232468	1.356730051	0
181	234143	1.366440051	73
181	234194	1.366730051	0
181	235857	1.376440051	73
181	235908	1.376730051	0
181	237565	1.386440051	73
181	237610	1.386730051	0
181	239279	1.396440051	73
181	239324	1.396730051	0
181	240987	1.406440051	73
181	241038	1.406730051	0
181	242707	1.416440051	73
181	242752	1.416730051	0
181	244409	1.426439951	73
181	244460	1.426729951	0
181	246123	1.436439951	73
181	246174	1.436729951	0
181	247837	1.446439951	73
181	247882	1.446729951	0
181	249557	1.456439951	73
181	249602	1.456729951	0
181	251259	1.466439951	73
181	251310	1.466729951	0
181	252979	1.476439951	73
181	253024	1.476729951	0
181	254693	1.486439951	73
181	254744	1.486729951	0
181	256407	1.496439951	73
181	256458	1.496729951	0
181	258115	1.506439951	73
181	258160	1.506729951	0
181	259829	1.516439951	73
181	259874	1.516729951	0
181	261531	1.526439951	73
181	261582	1.526729951	0
181	263251	1.536439951	73
181	263296	1.536729951	0
181	264965	1.546439951	73
181	265016	1.546729951	0
181	266679	1.556439951	73
181	266730	1.556729951	0
181	268387	1.566439951	73
181	268432	1.566729951	0
181	270101	1.576440051	73
181	270146	1.576730051	0
181	271815	1.586440051	73
181	271866	1.586730051	0
181	273517	1.596440051	73
181	273562	1.596730051	0
181	275225	1.606440051	73
181	275276	1.606730051	0
181	276945	1.616440051	73
181	276996	1.616730051	0
181	278665	1.626440051	73
181	278710	1.626730051	0
181	280373	1.636440051	73
181	280418	1.636730051	0
181	282081	1.646440051	73
181	282132	1.646730051	0
181	283801	1.656440051	73
181	283846	1.656730051	0
181	285515	1.666440051	73
181	285566	1.666730051	0
181	287217	1.676439951	73
181	287268	1.676729951	0
181	288925	1.686439951	73
181	288970	1.686729951	0
181	290639	1.696439951	73
181	290684	1.696729951	0
181	292353	1.706439951	73
181	292404	1.706729951	0
181	294067	1.716439951	73
181	294112	1.716729951	0
181	295781	1.726439951	73
181	295832	1.726729951	0
181	297489	1.736439951	73
181	297540	1.736729951	0
181	299209	1.746439951	73
181	299254	1.746729951	0
181	300917	1.756439951	73
181	300962	1.756729951	0
181	302631	1.766439951	73
181	302682	1.766729951	0
181	304333	1.776439951	73
181	304378	1.776729951	0
181	306053	1.786439951	73
181	306104	1.786729951	0
181	307767	1.796439951	73
181	307818	1.796729951	0
181	309481	1.806439951	73
181	309526	1.806729951	0
181	311195	1.816439951	73
181	311240	1.816729951	0
181	312915	1.826439951	73
181	312966	1.826729951	0
181	314623	1.836439951	73
181	314668	1.836729951	0
181	316325	1.846439951	73
181	316376	1.846729951	0
181	318039	1.856439951	73
181	318090	1.856729951	0
181	319747	1.866439951	73
181	319792	1.866729951	0
181	321461	1.876439951	73
181	321506	1.876729951	0
181	323175	1.886439951	73
181	323226	1.886729951	0
181	324889	1.896439951	73
181	324934	1.896729951	0
181	326603	1.906439951	73
181	326654	1.906729951	0
181	328323	1.916440051	73
181	328374	1.916730051	0
181	330025	1.926439951	73
181	330070	1.926729951	0
181	331739	1.936439951	73
181	331784	1.936729951	0
181	333447	1.946439951	73
181	333498	1.946729951	0
181	335167	1.956439951	73
181	335212	1.956729951	0
181	336881	1.966439951	73
181	336932	1.966729951	0
181	338589	1.976439951	73
181	338640	1.976729951	0
181	340303	1.986439951	73
181	340348	1.986729951	0
181	342017	1.996439951	73
181	342062	1.996729951	0
182	1279	0.006440051	1
182	1324	0.006730051	0
182	2981	0.016440051	1
182	3026	0.016730051	0
182	4695	0.026439951	1
182	4746	0.026729951	0
182	6409	0.036440051	1
182	6454	0.036730051	0
182	8129	0.046439951	1
182	8180	0.046729951	0
182	9837	0.056439951	1
182	9888	0.056729951	0
182	11557	0.066439951	1
182	11602	0.066729951	0
182	13265	0.076439951	1
182	13310	0.076729951	0
182	14979	0.086440051	1
182	15030	0.086730051	0
182	16687	0.096439951	1
182	16732	0.096729951	0
182	18401	0.106439951	1
182	18452	0.106729951	0
182	20115	0.116439951	1
182	20166	0.116729951	0
182	21823	0.126440051	1
182	21868	0.126730051	0
182	23543	0.136439951	1
182	23588	0.136729951	0
182	25251	0.146439951	1
182	25302	0.146729951	0
182	26971	0.156440051	1
182	27016	0.156730051	0
182	28673	0.166439951	1
182	28724	0.166729951	0
182	30387	0.176439951	1
182	30438	0.176729951	0
182	32101	0.186440051	1
182	32146	0.186730051	0
182	33815	0.196439951	1
182	33860	0.196729951	0
182	35517	0.206439951	1
182	35568	0.206729951	0
182	37231	0.216439951	1
182	37276	0.216729951	0
182	38945	0.226439951	1
182	38996	0.226729951	0
182	40665	0.236439951	1
182	40716	0.236729951	0
182	42373	0.246439951	1
182	42418	0.246729951	0
182	44087	0.256440051	1
182	44132	0.256730051	0
182	45789	0.266440051	1
182	45840	0.266730051	0
182	47503	0.276439951	1
182	47548	0.276729951	0
182	49217	0.286439951	1
182	49268	0.286729951	0
182	50931	0.296439951	1
182	50982	0.296729951	0
182	52645	0.306439951	1
182	52690	0.306729951	0
182	54359	0.316440051	1
182	54404	0.316730051	0
182	56067	0.326440051	1
182	56118	0.326730051	0
182	57781	0.336439951	1
182	57826	0.336729951	0
182	59489	0.346439951	1
182	59540	0.346729951	0
182	61197	0.356439951	1
182	61248	0.356729951	0
182	62911	0.366439951	1
182	62956	0.366729951	0
182	64625	0.376440051	1
182	64670	0.376730051	0
182	66339	0.386440051	1
182	66390	0.386730051	0
182	68059	0.396439951	1
182	68104	0.396729951	0
182	69773	0.406439951	1
182	69824	0.406729951	0
182	71475	0.416439951	1
182	71526	0.416729951	0
182	73195	0.426439951	1
182	73240	0.426729951	0
182	74903	0.436439951	1
182	74948	0.436729951	0
182	76617	0.446439951	1
182	76668	0.446729951	0
182	78325	0.456439951	1
182	78370	0.456729951	0
182	80045	0.466439951	1
182	80096	0.466729951	0
182	81747	0.476439951	1
182	81798	0.476729951	0
182	83467	0.486439951	1
182	83512	0.486729951	0
182	85175	0.496439951	1
182	85220	0.496729951	0
182	86895	0.506439951	1
182	86946	0.506729951	0
182	88597	0.516439951	1
182	88642	0.516729951	0
182	90311	0.526439951	1
182	90362	0.526729951	0
182	92031	0.536439951	1
182	92082	0.536729951	0
182	93739	0.546439951	1
182	93784	0.546729951	0
182	95453	0.556439951	1
182	95498	0.556729951	0
182	97173	0.566439951	1
182	97224	0.566729951	0
182	98881	0.576440051	1
182	98926	0.576730051	0
182	100583	0.586440051	1
182	100634	0.586730051	0
182	102303	0.596440051	1
182	102354	0.596730051	0
182	104011	0.606440051	1
182	104056	0.606730051	0
182	105725	0.616439951	1
182	105770	0.616729951	0
182	107439	0.626439951	1
182	107490	0.626729951	0
182	109153	0.636439951	1
182	109198	0.636729951	0
182	110867	0.646439951	1
182	110918	0.646729951	0
182	112575	0.656439951	1
182	112626	0.656729951	0
182	114283	0.666439951	1
182	114328	0.666729951	0
182	115997	0.676439951	1
182	116042	0.676729951	0
182	117699	0.686439951	1
182	117750	0.686729951	0
182	119419	0.696440051	1
182	119464	0.696730051	0
182	121139	0.706440051	1
182	121190	0.706730051	0
182	122853	0.716440051	1
182	122904	0.716730051	0
182	124555	0.726440051	1
182	124600	0.726730051	0
182	126269	0.736440051	1
182	126314	0.736730051	0
182	127983	0.746439951	1
182	128034	0.746729951	0
182	129691	0.756439951	1
182	129736	0.756729951	0
182	131399	0.766439951	1
182	131450	0.766729951	0
182	133113	0.776439951	1
182	133164	0.776729951	0
182	134827	0.786439951	1
182	134872	0.786729951	0
182	136541	0.796439951	1
182	136586	0.796729951	0
182	138249	0.806439951	1
182	138300	0.806729951	0
182	139969	0.816440051	1
182	140014	0.816730051	0
182	141683	0.826440051	1
182	141734	0.826730051	0
182	143391	0.836440051	1
182	143442	0.836730051	0
182	145105	0.846439951	1
182	145150	0.846729951	0
182	146813	0.856439951	1
182	146858	0.856729951	0
182	148527	0.866439951	1
182	148578	0.866729951	0
182	150241	0.876439951	1
182	150286	0.876729951	0
182	151955	0.886439951	1
182	152006	0.886729951	0
182	153669	0.896439951	1
182	153720	0.896729951	0
182	155389	0.906439951	1
182	155434	0.906729951	0
182	157091	0.916439951	1
182	157136	0.916729951	0
182	158811	0.926439951	1
182	158862	0.926729951	0
182	160507	0.936439951	1
182	160552	0.936729951	0
182	162215	0.946439951	1
182	162266	0.946729951	0
182	163941	0.956439951	1
182	163992	0.956729951	0
182	165655	0.966439951	1
182	165700	0.966729951	0
182	167369	0.976439951	1
182	167414	0.976729951	0
182	169077	0.986440051	1
182	169128	0.986730051	0
182	170797	0.996439951	1
182	170842	0.996729951	0
182	172499	1.006439951	1
182	172550	1.006729951	0
182	174213	1.016439951	1
182	174264	1.016729951	0
182	175927	1.026439951	1
182	175972	1.026729951	0
182	177641	1.036439951	1
182	177686	1.036729951	0
182	179349	1.046439951	1
182	179400	1.046729951	0
182	181063	1.056439951	1
182	181108	1.056729951	0
182	182777	1.066439951	1
182	182828	1.066729951	0
182	184491	1.076439951	1
182	184542	1.076729951	0
182	186205	1.086439951	1
182	186250	1.086729951	0
182	187913	1.096439951	1
182	187958	1.096729951	0
182	189615	1.106440051	1
182	189666	1.106730051	0
182	191335	1.116440051	1
182	191380	1.116730051	0
182	193049	1.126440051	1
182	193100	1.126730051	0
182	194757	1.136440051	1
182	194808	1.136730051	0
182	196471	1.146440051	1
182	196516	1.146730051	0
182	198185	1.156440051	1
182	198230	1.156730051	0
182	199905	1.166440051	1
182	199956	1.166730051	0
182	201613	1.176439951	1
182	201658	1.176729951	0
182	203315	1.186439951	1
182	203366	1.186729951	0
182	205029	1.196439951	1
182	205080	1.196729951	0
182	206743	1.206439951	1
182	206788	1.206729951	0
182	208451	1.216439951	1
182	208496	1.216729951	0
182	210165	1.226439951	1
182	210216	1.226729951	0
182	211885	1.236439951	1
182	211930	1.236729951	0
182	213599	1.246439951	1
182	213650	1.246729951	0
182	215307	1.256439951	1
182	215358	1.256729951	0
182	217015	1.266439951	1
182	217060	1.266729951	0
182	218723	1.276439951	1
182	218768	1.276729951	0
182	220437	1.286439951	1
182	220488	1.286729951	0
182	222157	1.296439951	1
182	222202	1.296729951	0
182	223871	1.306439951	1
182	223922	1.306729951	0
182	225573	1.316439951	1
182	225624	1.316729951	0
182	227299	1.326439951	1
182	227344	1.326729951	0
182	229007	1.336439951	1
182	229052	1.336729951	0
182	230721	1.346440051	1
182	230772	1.346730051	0
182	232423	1.356440051	1
182	232468	1.356730051	0
182	234143	1.366440051	1
182	234194	1.366730051	0
182	235857	1.376440051	1
182	235908	1.376730051	0
182	237565	1.386440051	1
182	237610	1.386730051	0
182	239279	1.396440051	1
182	239324	1.396730051	0
182	240987	1.406440051	1
182	241038	1.406730051	0
182	242707	1.416440051	1
182	242752	1.416730051	0
182	244409	1.426439951	1
182	244460	1.426729951	0
182	246123	1.436439951	1
182	246174	1.436729951	0
182	247837	1.446439951	1
182	247882	1.446729951	0
182	249557	1.456439951	1
182	249602	1.456729951	0
182	251259	1.466439951	1
182	251310	1.466729951	0
182	252979	1.476439951	1
182	253024	1.476729951	0
182	254693	1.486439951	1
182	254744	1.486729951	0
182	256407	1.496439951	1
182	256458	1.496729951	0
182	258115	1.506439951	1
182	258160	1.506729951	0
182	259829	1.516439951	1
182	259874	1.516729951	0
182	261531	1.526439951	1
182	261582	1.526729951	0
182	263251	1.536439951	1
182	263296	1.536729951	0
182	264965	1.546439951	1
182	265016	1.546729951	0
182	266679	1.556439951	1
182	266730	1.556729951	0
182	268387	1.566439951	1
182	268432	1.566729951	0
182	270101	1.576440051	1
182	270146	1.576730051	0
182	271815	1.586440051	1
182	271866	1.586730051	0
182	273517	1.596440051	1
182	273562	1.596730051	0
182	275225	1.606440051	1
182	275276	1.606730051	0
182	276945	1.616440051	1
182	276996	1.616730051	0
182	278665	1.626440051	1
182	278710	1.626730051	0
182	280373	1.636440051	1
182	280418	1.636730051	0
182	282081	1.646440051	1
182	282132	1.646730051	0
182	283801	1.656440051	1
182	283846	1.656730051	0
182	285515	1.666440051	1
182	285566	1.666730051	0
182	287217	1.676439951	1
182	287268	1.676729951	0
182	288925	1.686439951	1
182	288970	1.686729951	0
182	290639	1.696439951	1
182	290684	1.696729951	0
182	292353	1.706439951	1
182	292404	1.706729951	0
182	294067	1.716439951	1
182	294112	1.716729951	0
182	295781	1.726439951	1
182	295832	1.726729951	0
182	297489	1.736439951	1
182	297540	1.736729951	0
182	299209	1.746439951	1
182	299254	1.746729951	0
182	300917	1.756439951	1
182	300962	1.756729951	0
182	302631	1.766439951	1
182	302682	1.766729951	0
182	304333	1.776439951	1
182	304378	1.776729951	0
182	306053	1.786439951	1
182	306104	1.786729951	0
182	307767	1.796439951	1
182	307818	1.796729951	0
182	309481	1.806439951	1
182	309526	1.806729951	0
182	311195	1.816439951	1
182	311240	1.816729951	0
182	312915	1.826439951	1
182	312966	1.826729951	0
182	314623	1.836439951	1
182	314668	1.836729951	0
182	316325	1.846439951	1
182	316376	1.846729951	0
182	318039	1.856439951	1
182	318090	1.856729951	0
182	319747	1.866439951	1
182	319792	1.866729951	0
182	321461	1.876439951	1
182	321506	1.876729951	0
182	323175	1.886439951	1
182	323226	1.886729951	0
182	324889	1.896439951	1
182	324934	1.896729951	0
182	326603	1.906439951	1
182	326654	1.906729951	0
182	328323	1.916440051	1
182	328374	1.916730051	0
182	330025	1.926439951	1
182	330070	1.926729951	0
182	331739	1.936439951	1
182	331784	1.936729951	0
182	333447	1.946439951	1
182	333498	1.946729951	0
182	335167	1.956439951	1
182	335212	1.956729951	0
182	336881	1.966439951	1
182	336932	1.966729951	0
182	338589	1.976439951	1
182	338640	1.976729951	0
182	340303	1.986439951	1
182	340348	1.986729951	0
182	342017	1.996439951	1
182	342062	1.996729951	0
183	1280	0.006440551	73
183	2982	0.016440551	73
183	4696	0.026440451	73
183	6410	0.036440551	73
183	8130	0.046440451	73
183	9838	0.056440451	73
183	11558	0.066440451	73
183	13266	0.076440451	73
183	14980	0.086440551	73
183	16688	0.096440451	73
183	18402	0.106440451	73
183	20116	0.116440451	73
183	21824	0.126440551	73
183	23544	0.136440451	73
183	25252	0.146440451	73
183	26972	0.156440551	73
183	28674	0.166440451	73
183	30388	0.176440451	73
183	32102	0.186440551	73
183	33816	0.196440451	73
183	35518	0.206440451	73
183	37232	0.216440451	73
183	38946	0.226440451	73
183	40666	0.236440451	73
183	42374	0.246440451	73
183	44088	0.256440551	73
183	45790	0.266440551	73
183	47504	0.276440451	73
183	49218	0.286440451	73
183	50932	0.296440451	73
183	52646	0.306440451	73
183	54360	0.316440551	73
183	56068	0.326440551	73
183	57782	0.336440451	73
183	59490	0.346440451	73
183	61198	0.356440451	73
183	62912	0.366440451	73
183	64626	0.376440551	73
183	66340	0.386440551	73
183	68060	0.396440451	73
183	69774	0.406440451	73
183	71476	0.416440451	73
183	73196	0.426440451	73
183	74904	0.436440451	73
183	76618	0.446440451	73
183	78326	0.456440451	73
183	80046	0.466440451	73
183	81748	0.476440451	73
183	83468	0.486440451	73
183	85176	0.496440451	73
183	86896	0.506440451	73
183	88598	0.516440451	73
183	90312	0.526440451	73
183	92032	0.536440451	73
183	93740	0.546440451	73
183	95454	0.556440451	73
183	97174	0.566440451	73
183	98882	0.576440551	73
183	100584	0.586440551	73
183	102304	0.596440551	73
183	104012	0.606440551	73
183	105726	0.616440451	73
183	107440	0.626440451	73
183	109154	0.636440451	73
183	110868	0.646440451	73
183	112576	0.656440451	73
183	114284	0.666440451	73
183	115998	0.676440451	73
183	117700	0.686440451	73
183	119420	0.696440551	73
183	121140	0.706440551	73
183	122854	0.716440551	73
183	124556	0.726440551	73
183	126270	0.736440551	73
183	127984	0.746440451	73
183	129692	0.756440451	73
183	131400	0.766440451	73
183	133114	0.776440451	73
183	134828	0.786440451	73
183	136542	0.796440451	73
183	138250	0.806440451	73
183	139970	0.816440551	73
183	141684	0.826440551	73
183	143392	0.836440551	73
183	145106	0.846440451	73
183	146814	0.856440451	73
183	148528	0.866440451	73
183	150242	0.876440451	73
183	151956	0.886440451	73
183	153670	0.896440451	73
183	155390	0.906440451	73
183	157092	0.916440451	73
183	158812	0.926440451	73
183	160508	0.936440451	73
183	162216	0.946440451	73
183	163942	0.956440451	73
183	165656	0.966440451	73
183	167370	0.976440451	73
183	169078	0.986440551	73
183	170798	0.996440451	73
183	172500	1.006440451	73
183	174214	1.016440451	73
183	175928	1.026440451	73
183	177642	1.036440451	73
183	179350	1.046440451	73
183	181064	1.056440451	73
183	182778	1.066440451	73
183	184492	1.076440451	73
183	186206	1.086440451	73
183	187914	1.096440451	73
183	189616	1.106440551	73
183	191336	1.116440551	73
183	193050	1.126440551	73
183	194758	1.136440551	73
183	196472	1.146440551	73
183	198186	1.156440551	73
183	199906	1.166440551	73
183	201614	1.176440451	73
183	203316	1.186440451	73
183	205030	1.196440451	73
183	206744	1.206440451	73
183	208452	1.216440451	73
183	210166	1.226440451	73
183	211886	1.236440451	73
183	213600	1.246440451	73
183	215308	1.256440451	73
183	217016	1.266440451	73
183	218724	1.276440451	73
183	220438	1.286440451	73
183	222158	1.296440451	73
183	223872	1.306440451	73
183	225574	1.316440451	73
183	227300	1.326440451	73
183	229008	1.336440451	73
183	230722	1.346440551	73
183	232424	1.356440551	73
183	234144	1.366440551	73
183	235858	1.376440551	73
183	237566	1.386440551	73
183	239280	1.396440551	73
183	240988	1.406440551	73
183	242708	1.416440551	73
183	244410	1.426440451	73
183	246124	1.436440451	73
183	247838	1.446440451	73
183	249558	1.456440451	73
183	251260	1.466440451	73
183	252980	1.476440451	73
183	254694	1.486440451	73
183	256408	1.496440451	73
183	258116	1.506440451	73
183	259830	1.516440451	73
183	261532	1.526440451	73
183	263252	1.536440451	73
183	264966	1.546440451	73
183	266680	1.556440451	73
183	268388	1.566440451	73
183	270102	1.576440551	73
183	271816	1.586440551	73
183	273518	1.596440551	73
183	275226	1.606440551	73
183	276946	1.616440551	73
183	278666	1.626440551	73
183	280374	1.636440551	73
183	282082	1.646440551	73
183	283802	1.656440551	73
183	285516	1.666440551	73
183	287218	1.676440451	73
183	288926	1.686440451	73
183	290640	1.696440451	73
183	292354	1.706440451	73
183	294068	1.716440451	73
183	295782	1.726440451	73
183	297490	1.736440451	73
183	299210	1.746440451	73
183	300918	1.756440451	73
183	302632	1.766440451	73
183	304334	1.776440451	73
183	306054	1.786440451	73
183	307768	1.796440451	73
183	309482	1.806440451	73
183	311196	1.816440451	73
183	312916	1.826440451	73
183	314624	1.836440451	73
183	316326	1.846440451	73
183	318040	1.856440451	73
183	319748	1.866440451	73
183	321462	1.876440451	73
183	323176	1.886440451	73
183	324890	1.896440451	73
183	326604	1.906440451	73
183	328324	1.916440551	73
183	330026	1.926440451	73
183	331740	1.936440451	73
183	333448	1.946440451	73
183	335168	1.956440451	73
183	336882	1.966440451	73
183	338590	1.976440451	73
183	340304	1.986440451	73
183	342018	1.996440451	73

