file 51628126 1741622706                                        
version 2
run CrclRt-0-20250310-23:59:48-2840
attr configname CrclRt
attr datetime 20250310-23:59:48
attr datetimef 20250310-235948
attr experiment CrclRt
attr inifile omnetpp.ini
attr iterationvars ""
attr iterationvarsd ""
attr iterationvarsf ""
attr measurement ""
attr network can4cqf.simulations.large_network.Large_network
attr processid 2840
attr repetition 0
attr replication #0
attr resultdir results
attr runnumber 0
attr seedset 0
config debug-on-errors true
config image-path ../../../CoRE4INET/images;../../../inet/images
config **.gateway.buffering[*].typename CircularRotationBuffer
config **.gateway.transform[*].typename VarGatewayTransformation
config **.gateway.buffering[*].timeout 100us
config **.gateway.buffering[*].lamda 0.8
config network can4cqf.simulations.large_network.Large_network
config result-dir results
config sim-time-limit 4s
config **.bin-recording true
config **.scalar-recording true
config **.statistic-recording true
config **.vector-recording true
config record-eventlog false
config **.rxgate.controlList.record false
config **.gateControlList.controlList.record false
config **.gateway.bufferingDelay 100us
config **.gateway.transformDelay 100us
config **.canBus1.bandwidth 8Mbps
config **.canBus2.bandwidth 8Mbps
config **.addressTableFile "\"addressTable.txt\""
config **.scheduler.tick 100ns
config **.scheduler.numPeriods 1
config **.scheduler.period[0].cycle_ticks sec_to_tick(4s)
config **.scheduler.period[0].offset_ticks sec_to_tick(0ms)
config **.scheduler.oscillator.max_drift 200ppm
config **.scheduler.oscillator.drift_change uniform(-50ppm,50ppm)
config **.precission 500ns
config network can4cqf.simulations.large_network.Large_network
config **.gateway1.can[*].bufferIn[*].idIncomingFrames "\"1, 2, 3, 4, 5, 6, 7, 8, 9, 10, 11, 12, 13, 14, 15, 16, 17, 18, 19, 20, 21, 22, 23, 24, 25, 26, 27, 28, 29, 30, 31, 32, 33, 34, 35, 36, 37, 38, 39, 40, 41, 42, 43, 44, 45, 46, 47, 48, 49, 50, 51, 52, 53, 54, 55, 56, 57, 58, 59, 60, 61, 62, 63, 64, 65, 66, 67, 68, 69, 70, 71, 72, 73, 74, 75, 76, 77, 78, 79, 80, 81, 82, 83, 84, 85, 86, 87, 88, 89, 90, 91, 92, 93, 94, 95, 96, 97, 98, 99, 100, 101, 102, 103, 104, 105, 106, 107, 108, 109, 110, 111, 112, 113, 114, 115, 116, 117, 118, 119, 120, 121, 122, 123, 124, 125, 126, 127, 128, 129, 130, 131, 132, 133, 134, 135, 136, 137, 138, 139, 140, 141, 142, 143, 144, 145, 146, 147, 148, 149, 150, 151, 152, 153, 154, 155, 156, 157, 158, 159, 160\""
config **.gateway1.can[*].bufferIn[*].destination_gates "\"sinkApp[0].dataIn\""
config **.gateway1.tsn[*].phy[*].mac.address "\"0A-00-00-00-00-07\""
config **.gateway1.tsn[*].bgIn.destination_gates "\"gatewayApp.in\""
config **.gateway1.tsn[*].gatewayApp.buffers "\"bgOut\""
config **.gateway1.tsn[*].phy[*].shaper.transmissionSelectionAlgorithm[*].typename IEEE8021QbvSelectionAlgorithm
config network can4cqf.simulations.large_network.Large_network
config **.gateway2.can[*].bufferIn[*].idIncomingFrames "\"1, 2, 3, 4, 5, 6, 7, 8, 9, 10, 11, 12, 13, 14, 15, 16, 17, 18, 19, 20, 21, 22, 23, 24, 25, 26, 27, 28, 29, 30, 31, 32, 33, 34, 35, 36, 37, 38, 39, 40, 41, 42, 43, 44, 45, 46, 47, 48, 49, 50, 51, 52, 53, 54, 55, 56, 57, 58, 59, 60, 61, 62, 63, 64, 65, 66, 67, 68, 69, 70, 71, 72, 73, 74, 75, 76, 77, 78, 79, 80, 81, 82, 83, 84, 85, 86, 87, 88, 89, 90, 91, 92, 93, 94, 95, 96, 97, 98, 99, 100, 101, 102, 103, 104, 105, 106, 107, 108, 109, 110, 111, 112, 113, 114, 115, 116, 117, 118, 119, 120, 121, 122, 123, 124, 125, 126, 127, 128, 129, 130, 131, 132, 133, 134, 135, 136, 137, 138, 139, 140, 141, 142, 143, 144, 145, 146, 147, 148, 149, 150, 151, 152, 153, 154, 155, 156, 157, 158, 159, 160\""
config **.gateway2.can[*].bufferIn[*].destination_gates "\"sinkApp[0].dataIn\""
config **.gateway2.tsn[*].phy[*].mac.address "\"0A-00-00-00-00-08\""
config **.gateway2.tsn[*].bgIn.destination_gates "\"gatewayApp.in\""
config **.gateway2.tsn[*].gatewayApp.buffers "\"bgOut\""
config **.gateway2.countOfCanBusses 1
config **.gateway2.countOfEthernetPorts 1
config **.gateway2.tsn[*].phy[*].taggedVIDs "\"0,1\""
config **.gateway2.tsn[*].phy[*].untaggedVID 0
config **.gateway2.tsn[*].phy[*].shaper.transmissionSelectionAlgorithm[*].typename IEEE8021QbvSelectionAlgorithm
config network can4cqf.simulations.large_network.Large_network
config **.switch1.phy[0].mac.address "\"0A-00-00-00-00-01\""
config **.switch1.phy[1].mac.address "\"0A-00-00-00-00-02\""
config **.switch1.phy[*].shaper.transmissionSelectionAlgorithm[*].typename IEEE8021QbvSelectionAlgorithm
config **.switch1.phy[0].untaggedVID 0
config **.switch1.phy[0].taggedVIDs "\"0,1\""
config **.switch1.phy[1].untaggedVID 0
config **.switch1.phy[1].taggedVIDs "\"0,1\""
config network can4cqf.simulations.large_network.Large_network
config **.switch2.phy[0].mac.address "\"0A-00-00-00-00-03\""
config **.switch2.phy[1].mac.address "\"0A-00-00-00-00-04\""
config **.switch2.phy[*].shaper.transmissionSelectionAlgorithm[*].typename IEEE8021QbvSelectionAlgorithm
config **.switch2.phy[0].untaggedVID 0
config **.switch2.phy[0].taggedVIDs "\"0,1\""
config **.switch2.phy[1].untaggedVID 0
config **.switch2.phy[1].taggedVIDs "\"0,1\""
config network can4cqf.simulations.large_network.Large_network
config **.switch3.phy[0].mac.address "\"0A-00-00-00-00-05\""
config **.switch3.phy[1].mac.address "\"0A-00-00-00-00-06\""
config **.switch3.phy[*].shaper.transmissionSelectionAlgorithm[*].typename IEEE8021QbvSelectionAlgorithm
config **.switch3.phy[0].untaggedVID 0
config **.switch3.phy[0].taggedVIDs "\"0,1\""
config **.switch3.phy[1].untaggedVID 0
config **.switch3.phy[1].taggedVIDs "\"0,1\""
config network can4cqf.simulations.large_network.Large_network
config **.canNode1.numSourceApps 8
config **.canNode2.numSourceApps 8
config **.canNode3.numSourceApps 8
config **.canNode4.numSourceApps 8
config **.canNode5.numSourceApps 8
config **.canNode6.numSourceApps 8
config **.canNode7.numSourceApps 8
config **.canNode8.numSourceApps 8
config **.canNode9.numSourceApps 8
config **.canNode10.numSourceApps 8
config **.canNode1.sourceApp[0].idDataFrames "\"1\""
config **.canNode1.sourceApp[0].periodicityDataFrames "\"0.01\""
config **.canNode1.sourceApp[0].initialDataFrameOffset "\"0\""
config **.canNode1.sourceApp[0].dataLengthDataFrames "\"64\""
config **.canNode1.sourceApp[1].idDataFrames "\"2\""
config **.canNode1.sourceApp[1].periodicityDataFrames "\"0.01\""
config **.canNode1.sourceApp[1].initialDataFrameOffset "\"0\""
config **.canNode1.sourceApp[1].dataLengthDataFrames "\"64\""
config **.canNode1.sourceApp[2].idDataFrames "\"3\""
config **.canNode1.sourceApp[2].periodicityDataFrames "\"0.01\""
config **.canNode1.sourceApp[2].initialDataFrameOffset "\"0\""
config **.canNode1.sourceApp[2].dataLengthDataFrames "\"64\""
config **.canNode1.sourceApp[3].idDataFrames "\"4\""
config **.canNode1.sourceApp[3].periodicityDataFrames "\"0.01\""
config **.canNode1.sourceApp[3].initialDataFrameOffset "\"0\""
config **.canNode1.sourceApp[3].dataLengthDataFrames "\"64\""
config **.canNode1.sourceApp[4].idDataFrames "\"5\""
config **.canNode1.sourceApp[4].periodicityDataFrames "\"0.01\""
config **.canNode1.sourceApp[4].initialDataFrameOffset "\"0\""
config **.canNode1.sourceApp[4].dataLengthDataFrames "\"64\""
config **.canNode1.sourceApp[5].idDataFrames "\"6\""
config **.canNode1.sourceApp[5].periodicityDataFrames "\"0.01\""
config **.canNode1.sourceApp[5].initialDataFrameOffset "\"0\""
config **.canNode1.sourceApp[5].dataLengthDataFrames "\"64\""
config **.canNode1.sourceApp[6].idDataFrames "\"7\""
config **.canNode1.sourceApp[6].periodicityDataFrames "\"0.01\""
config **.canNode1.sourceApp[6].initialDataFrameOffset "\"0\""
config **.canNode1.sourceApp[6].dataLengthDataFrames "\"64\""
config **.canNode1.sourceApp[7].idDataFrames "\"8\""
config **.canNode1.sourceApp[7].periodicityDataFrames "\"0.01\""
config **.canNode1.sourceApp[7].initialDataFrameOffset "\"0\""
config **.canNode1.sourceApp[7].dataLengthDataFrames "\"64\""
config **.canNode2.sourceApp[0].idDataFrames "\"9\""
config **.canNode2.sourceApp[0].periodicityDataFrames "\"0.01\""
config **.canNode2.sourceApp[0].initialDataFrameOffset "\"0\""
config **.canNode2.sourceApp[0].dataLengthDataFrames "\"64\""
config **.canNode2.sourceApp[1].idDataFrames "\"10\""
config **.canNode2.sourceApp[1].periodicityDataFrames "\"0.01\""
config **.canNode2.sourceApp[1].initialDataFrameOffset "\"0\""
config **.canNode2.sourceApp[1].dataLengthDataFrames "\"64\""
config **.canNode2.sourceApp[2].idDataFrames "\"11\""
config **.canNode2.sourceApp[2].periodicityDataFrames "\"0.01\""
config **.canNode2.sourceApp[2].initialDataFrameOffset "\"0\""
config **.canNode2.sourceApp[2].dataLengthDataFrames "\"64\""
config **.canNode2.sourceApp[3].idDataFrames "\"12\""
config **.canNode2.sourceApp[3].periodicityDataFrames "\"0.01\""
config **.canNode2.sourceApp[3].initialDataFrameOffset "\"0\""
config **.canNode2.sourceApp[3].dataLengthDataFrames "\"64\""
config **.canNode2.sourceApp[4].idDataFrames "\"13\""
config **.canNode2.sourceApp[4].periodicityDataFrames "\"0.01\""
config **.canNode2.sourceApp[4].initialDataFrameOffset "\"0\""
config **.canNode2.sourceApp[4].dataLengthDataFrames "\"64\""
config **.canNode2.sourceApp[5].idDataFrames "\"14\""
config **.canNode2.sourceApp[5].periodicityDataFrames "\"0.01\""
config **.canNode2.sourceApp[5].initialDataFrameOffset "\"0\""
config **.canNode2.sourceApp[5].dataLengthDataFrames "\"64\""
config **.canNode2.sourceApp[6].idDataFrames "\"15\""
config **.canNode2.sourceApp[6].periodicityDataFrames "\"0.01\""
config **.canNode2.sourceApp[6].initialDataFrameOffset "\"0\""
config **.canNode2.sourceApp[6].dataLengthDataFrames "\"64\""
config **.canNode2.sourceApp[7].idDataFrames "\"16\""
config **.canNode2.sourceApp[7].periodicityDataFrames "\"0.01\""
config **.canNode2.sourceApp[7].initialDataFrameOffset "\"0\""
config **.canNode2.sourceApp[7].dataLengthDataFrames "\"64\""
config **.canNode3.sourceApp[0].idDataFrames "\"17\""
config **.canNode3.sourceApp[0].periodicityDataFrames "\"0.01\""
config **.canNode3.sourceApp[0].initialDataFrameOffset "\"0\""
config **.canNode3.sourceApp[0].dataLengthDataFrames "\"64\""
config **.canNode3.sourceApp[1].idDataFrames "\"18\""
config **.canNode3.sourceApp[1].periodicityDataFrames "\"0.01\""
config **.canNode3.sourceApp[1].initialDataFrameOffset "\"0\""
config **.canNode3.sourceApp[1].dataLengthDataFrames "\"64\""
config **.canNode3.sourceApp[2].idDataFrames "\"19\""
config **.canNode3.sourceApp[2].periodicityDataFrames "\"0.01\""
config **.canNode3.sourceApp[2].initialDataFrameOffset "\"0\""
config **.canNode3.sourceApp[2].dataLengthDataFrames "\"64\""
config **.canNode3.sourceApp[3].idDataFrames "\"20\""
config **.canNode3.sourceApp[3].periodicityDataFrames "\"0.01\""
config **.canNode3.sourceApp[3].initialDataFrameOffset "\"0\""
config **.canNode3.sourceApp[3].dataLengthDataFrames "\"64\""
config **.canNode3.sourceApp[4].idDataFrames "\"21\""
config **.canNode3.sourceApp[4].periodicityDataFrames "\"0.01\""
config **.canNode3.sourceApp[4].initialDataFrameOffset "\"0\""
config **.canNode3.sourceApp[4].dataLengthDataFrames "\"64\""
config **.canNode3.sourceApp[5].idDataFrames "\"22\""
config **.canNode3.sourceApp[5].periodicityDataFrames "\"0.01\""
config **.canNode3.sourceApp[5].initialDataFrameOffset "\"0\""
config **.canNode3.sourceApp[5].dataLengthDataFrames "\"64\""
config **.canNode3.sourceApp[6].idDataFrames "\"23\""
config **.canNode3.sourceApp[6].periodicityDataFrames "\"0.01\""
config **.canNode3.sourceApp[6].initialDataFrameOffset "\"0\""
config **.canNode3.sourceApp[6].dataLengthDataFrames "\"64\""
config **.canNode3.sourceApp[7].idDataFrames "\"24\""
config **.canNode3.sourceApp[7].periodicityDataFrames "\"0.01\""
config **.canNode3.sourceApp[7].initialDataFrameOffset "\"0\""
config **.canNode3.sourceApp[7].dataLengthDataFrames "\"64\""
config **.canNode4.sourceApp[0].idDataFrames "\"25\""
config **.canNode4.sourceApp[0].periodicityDataFrames "\"0.01\""
config **.canNode4.sourceApp[0].initialDataFrameOffset "\"0\""
config **.canNode4.sourceApp[0].dataLengthDataFrames "\"64\""
config **.canNode4.sourceApp[1].idDataFrames "\"26\""
config **.canNode4.sourceApp[1].periodicityDataFrames "\"0.01\""
config **.canNode4.sourceApp[1].initialDataFrameOffset "\"0\""
config **.canNode4.sourceApp[1].dataLengthDataFrames "\"64\""
config **.canNode4.sourceApp[2].idDataFrames "\"27\""
config **.canNode4.sourceApp[2].periodicityDataFrames "\"0.01\""
config **.canNode4.sourceApp[2].initialDataFrameOffset "\"0\""
config **.canNode4.sourceApp[2].dataLengthDataFrames "\"64\""
config **.canNode4.sourceApp[3].idDataFrames "\"28\""
config **.canNode4.sourceApp[3].periodicityDataFrames "\"0.01\""
config **.canNode4.sourceApp[3].initialDataFrameOffset "\"0\""
config **.canNode4.sourceApp[3].dataLengthDataFrames "\"64\""
config **.canNode4.sourceApp[4].idDataFrames "\"29\""
config **.canNode4.sourceApp[4].periodicityDataFrames "\"0.01\""
config **.canNode4.sourceApp[4].initialDataFrameOffset "\"0\""
config **.canNode4.sourceApp[4].dataLengthDataFrames "\"64\""
config **.canNode4.sourceApp[5].idDataFrames "\"30\""
config **.canNode4.sourceApp[5].periodicityDataFrames "\"0.01\""
config **.canNode4.sourceApp[5].initialDataFrameOffset "\"0\""
config **.canNode4.sourceApp[5].dataLengthDataFrames "\"64\""
config **.canNode4.sourceApp[6].idDataFrames "\"31\""
config **.canNode4.sourceApp[6].periodicityDataFrames "\"0.01\""
config **.canNode4.sourceApp[6].initialDataFrameOffset "\"0\""
config **.canNode4.sourceApp[6].dataLengthDataFrames "\"64\""
config **.canNode4.sourceApp[7].idDataFrames "\"32\""
config **.canNode4.sourceApp[7].periodicityDataFrames "\"0.01\""
config **.canNode4.sourceApp[7].initialDataFrameOffset "\"0\""
config **.canNode4.sourceApp[7].dataLengthDataFrames "\"64\""
config **.canNode5.sourceApp[0].idDataFrames "\"33\""
config **.canNode5.sourceApp[0].periodicityDataFrames "\"0.01\""
config **.canNode5.sourceApp[0].initialDataFrameOffset "\"0\""
config **.canNode5.sourceApp[0].dataLengthDataFrames "\"64\""
config **.canNode5.sourceApp[1].idDataFrames "\"34\""
config **.canNode5.sourceApp[1].periodicityDataFrames "\"0.01\""
config **.canNode5.sourceApp[1].initialDataFrameOffset "\"0\""
config **.canNode5.sourceApp[1].dataLengthDataFrames "\"64\""
config **.canNode5.sourceApp[2].idDataFrames "\"35\""
config **.canNode5.sourceApp[2].periodicityDataFrames "\"0.01\""
config **.canNode5.sourceApp[2].initialDataFrameOffset "\"0\""
config **.canNode5.sourceApp[2].dataLengthDataFrames "\"64\""
config **.canNode5.sourceApp[3].idDataFrames "\"36\""
config **.canNode5.sourceApp[3].periodicityDataFrames "\"0.01\""
config **.canNode5.sourceApp[3].initialDataFrameOffset "\"0\""
config **.canNode5.sourceApp[3].dataLengthDataFrames "\"64\""
config **.canNode5.sourceApp[4].idDataFrames "\"37\""
config **.canNode5.sourceApp[4].periodicityDataFrames "\"0.01\""
config **.canNode5.sourceApp[4].initialDataFrameOffset "\"0\""
config **.canNode5.sourceApp[4].dataLengthDataFrames "\"64\""
config **.canNode5.sourceApp[5].idDataFrames "\"38\""
config **.canNode5.sourceApp[5].periodicityDataFrames "\"0.01\""
config **.canNode5.sourceApp[5].initialDataFrameOffset "\"0\""
config **.canNode5.sourceApp[5].dataLengthDataFrames "\"64\""
config **.canNode5.sourceApp[6].idDataFrames "\"39\""
config **.canNode5.sourceApp[6].periodicityDataFrames "\"0.01\""
config **.canNode5.sourceApp[6].initialDataFrameOffset "\"0\""
config **.canNode5.sourceApp[6].dataLengthDataFrames "\"64\""
config **.canNode5.sourceApp[7].idDataFrames "\"40\""
config **.canNode5.sourceApp[7].periodicityDataFrames "\"0.01\""
config **.canNode5.sourceApp[7].initialDataFrameOffset "\"0\""
config **.canNode5.sourceApp[7].dataLengthDataFrames "\"64\""
config **.canNode6.sourceApp[0].idDataFrames "\"41\""
config **.canNode6.sourceApp[0].periodicityDataFrames "\"0.01\""
config **.canNode6.sourceApp[0].initialDataFrameOffset "\"0\""
config **.canNode6.sourceApp[0].dataLengthDataFrames "\"64\""
config **.canNode6.sourceApp[1].idDataFrames "\"42\""
config **.canNode6.sourceApp[1].periodicityDataFrames "\"0.01\""
config **.canNode6.sourceApp[1].initialDataFrameOffset "\"0\""
config **.canNode6.sourceApp[1].dataLengthDataFrames "\"64\""
config **.canNode6.sourceApp[2].idDataFrames "\"43\""
config **.canNode6.sourceApp[2].periodicityDataFrames "\"0.01\""
config **.canNode6.sourceApp[2].initialDataFrameOffset "\"0\""
config **.canNode6.sourceApp[2].dataLengthDataFrames "\"64\""
config **.canNode6.sourceApp[3].idDataFrames "\"44\""
config **.canNode6.sourceApp[3].periodicityDataFrames "\"0.01\""
config **.canNode6.sourceApp[3].initialDataFrameOffset "\"0\""
config **.canNode6.sourceApp[3].dataLengthDataFrames "\"64\""
config **.canNode6.sourceApp[4].idDataFrames "\"45\""
config **.canNode6.sourceApp[4].periodicityDataFrames "\"0.01\""
config **.canNode6.sourceApp[4].initialDataFrameOffset "\"0\""
config **.canNode6.sourceApp[4].dataLengthDataFrames "\"64\""
config **.canNode6.sourceApp[5].idDataFrames "\"46\""
config **.canNode6.sourceApp[5].periodicityDataFrames "\"0.01\""
config **.canNode6.sourceApp[5].initialDataFrameOffset "\"0\""
config **.canNode6.sourceApp[5].dataLengthDataFrames "\"64\""
config **.canNode6.sourceApp[6].idDataFrames "\"47\""
config **.canNode6.sourceApp[6].periodicityDataFrames "\"0.01\""
config **.canNode6.sourceApp[6].initialDataFrameOffset "\"0\""
config **.canNode6.sourceApp[6].dataLengthDataFrames "\"64\""
config **.canNode6.sourceApp[7].idDataFrames "\"48\""
config **.canNode6.sourceApp[7].periodicityDataFrames "\"0.01\""
config **.canNode6.sourceApp[7].initialDataFrameOffset "\"0\""
config **.canNode6.sourceApp[7].dataLengthDataFrames "\"64\""
config **.canNode7.sourceApp[0].idDataFrames "\"49\""
config **.canNode7.sourceApp[0].periodicityDataFrames "\"0.01\""
config **.canNode7.sourceApp[0].initialDataFrameOffset "\"0\""
config **.canNode7.sourceApp[0].dataLengthDataFrames "\"64\""
config **.canNode7.sourceApp[1].idDataFrames "\"50\""
config **.canNode7.sourceApp[1].periodicityDataFrames "\"0.01\""
config **.canNode7.sourceApp[1].initialDataFrameOffset "\"0\""
config **.canNode7.sourceApp[1].dataLengthDataFrames "\"64\""
config **.canNode7.sourceApp[2].idDataFrames "\"51\""
config **.canNode7.sourceApp[2].periodicityDataFrames "\"0.01\""
config **.canNode7.sourceApp[2].initialDataFrameOffset "\"0\""
config **.canNode7.sourceApp[2].dataLengthDataFrames "\"64\""
config **.canNode7.sourceApp[3].idDataFrames "\"52\""
config **.canNode7.sourceApp[3].periodicityDataFrames "\"0.01\""
config **.canNode7.sourceApp[3].initialDataFrameOffset "\"0\""
config **.canNode7.sourceApp[3].dataLengthDataFrames "\"64\""
config **.canNode7.sourceApp[4].idDataFrames "\"53\""
config **.canNode7.sourceApp[4].periodicityDataFrames "\"0.01\""
config **.canNode7.sourceApp[4].initialDataFrameOffset "\"0\""
config **.canNode7.sourceApp[4].dataLengthDataFrames "\"64\""
config **.canNode7.sourceApp[5].idDataFrames "\"54\""
config **.canNode7.sourceApp[5].periodicityDataFrames "\"0.01\""
config **.canNode7.sourceApp[5].initialDataFrameOffset "\"0\""
config **.canNode7.sourceApp[5].dataLengthDataFrames "\"64\""
config **.canNode7.sourceApp[6].idDataFrames "\"55\""
config **.canNode7.sourceApp[6].periodicityDataFrames "\"0.01\""
config **.canNode7.sourceApp[6].initialDataFrameOffset "\"0\""
config **.canNode7.sourceApp[6].dataLengthDataFrames "\"64\""
config **.canNode7.sourceApp[7].idDataFrames "\"56\""
config **.canNode7.sourceApp[7].periodicityDataFrames "\"0.01\""
config **.canNode7.sourceApp[7].initialDataFrameOffset "\"0\""
config **.canNode7.sourceApp[7].dataLengthDataFrames "\"64\""
config **.canNode8.sourceApp[0].idDataFrames "\"57\""
config **.canNode8.sourceApp[0].periodicityDataFrames "\"0.01\""
config **.canNode8.sourceApp[0].initialDataFrameOffset "\"0\""
config **.canNode8.sourceApp[0].dataLengthDataFrames "\"64\""
config **.canNode8.sourceApp[1].idDataFrames "\"58\""
config **.canNode8.sourceApp[1].periodicityDataFrames "\"0.01\""
config **.canNode8.sourceApp[1].initialDataFrameOffset "\"0\""
config **.canNode8.sourceApp[1].dataLengthDataFrames "\"64\""
config **.canNode8.sourceApp[2].idDataFrames "\"59\""
config **.canNode8.sourceApp[2].periodicityDataFrames "\"0.01\""
config **.canNode8.sourceApp[2].initialDataFrameOffset "\"0\""
config **.canNode8.sourceApp[2].dataLengthDataFrames "\"64\""
config **.canNode8.sourceApp[3].idDataFrames "\"60\""
config **.canNode8.sourceApp[3].periodicityDataFrames "\"0.01\""
config **.canNode8.sourceApp[3].initialDataFrameOffset "\"0\""
config **.canNode8.sourceApp[3].dataLengthDataFrames "\"64\""
config **.canNode8.sourceApp[4].idDataFrames "\"61\""
config **.canNode8.sourceApp[4].periodicityDataFrames "\"0.01\""
config **.canNode8.sourceApp[4].initialDataFrameOffset "\"0\""
config **.canNode8.sourceApp[4].dataLengthDataFrames "\"64\""
config **.canNode8.sourceApp[5].idDataFrames "\"62\""
config **.canNode8.sourceApp[5].periodicityDataFrames "\"0.01\""
config **.canNode8.sourceApp[5].initialDataFrameOffset "\"0\""
config **.canNode8.sourceApp[5].dataLengthDataFrames "\"64\""
config **.canNode8.sourceApp[6].idDataFrames "\"63\""
config **.canNode8.sourceApp[6].periodicityDataFrames "\"0.01\""
config **.canNode8.sourceApp[6].initialDataFrameOffset "\"0\""
config **.canNode8.sourceApp[6].dataLengthDataFrames "\"64\""
config **.canNode8.sourceApp[7].idDataFrames "\"64\""
config **.canNode8.sourceApp[7].periodicityDataFrames "\"0.01\""
config **.canNode8.sourceApp[7].initialDataFrameOffset "\"0\""
config **.canNode8.sourceApp[7].dataLengthDataFrames "\"64\""
config **.canNode9.sourceApp[0].idDataFrames "\"65\""
config **.canNode9.sourceApp[0].periodicityDataFrames "\"0.01\""
config **.canNode9.sourceApp[0].initialDataFrameOffset "\"0\""
config **.canNode9.sourceApp[0].dataLengthDataFrames "\"64\""
config **.canNode9.sourceApp[1].idDataFrames "\"66\""
config **.canNode9.sourceApp[1].periodicityDataFrames "\"0.01\""
config **.canNode9.sourceApp[1].initialDataFrameOffset "\"0\""
config **.canNode9.sourceApp[1].dataLengthDataFrames "\"64\""
config **.canNode9.sourceApp[2].idDataFrames "\"67\""
config **.canNode9.sourceApp[2].periodicityDataFrames "\"0.01\""
config **.canNode9.sourceApp[2].initialDataFrameOffset "\"0\""
config **.canNode9.sourceApp[2].dataLengthDataFrames "\"64\""
config **.canNode9.sourceApp[3].idDataFrames "\"68\""
config **.canNode9.sourceApp[3].periodicityDataFrames "\"0.01\""
config **.canNode9.sourceApp[3].initialDataFrameOffset "\"0\""
config **.canNode9.sourceApp[3].dataLengthDataFrames "\"64\""
config **.canNode9.sourceApp[4].idDataFrames "\"69\""
config **.canNode9.sourceApp[4].periodicityDataFrames "\"0.01\""
config **.canNode9.sourceApp[4].initialDataFrameOffset "\"0\""
config **.canNode9.sourceApp[4].dataLengthDataFrames "\"64\""
config **.canNode9.sourceApp[5].idDataFrames "\"70\""
config **.canNode9.sourceApp[5].periodicityDataFrames "\"0.01\""
config **.canNode9.sourceApp[5].initialDataFrameOffset "\"0\""
config **.canNode9.sourceApp[5].dataLengthDataFrames "\"64\""
config **.canNode9.sourceApp[6].idDataFrames "\"71\""
config **.canNode9.sourceApp[6].periodicityDataFrames "\"0.01\""
config **.canNode9.sourceApp[6].initialDataFrameOffset "\"0\""
config **.canNode9.sourceApp[6].dataLengthDataFrames "\"64\""
config **.canNode9.sourceApp[7].idDataFrames "\"72\""
config **.canNode9.sourceApp[7].periodicityDataFrames "\"0.01\""
config **.canNode9.sourceApp[7].initialDataFrameOffset "\"0\""
config **.canNode9.sourceApp[7].dataLengthDataFrames "\"64\""
config **.canNode10.sourceApp[0].idDataFrames "\"73\""
config **.canNode10.sourceApp[0].periodicityDataFrames "\"0.01\""
config **.canNode10.sourceApp[0].initialDataFrameOffset "\"0\""
config **.canNode10.sourceApp[0].dataLengthDataFrames "\"64\""
config **.canNode10.sourceApp[1].idDataFrames "\"74\""
config **.canNode10.sourceApp[1].periodicityDataFrames "\"0.01\""
config **.canNode10.sourceApp[1].initialDataFrameOffset "\"0\""
config **.canNode10.sourceApp[1].dataLengthDataFrames "\"64\""
config **.canNode10.sourceApp[2].idDataFrames "\"75\""
config **.canNode10.sourceApp[2].periodicityDataFrames "\"0.01\""
config **.canNode10.sourceApp[2].initialDataFrameOffset "\"0\""
config **.canNode10.sourceApp[2].dataLengthDataFrames "\"64\""
config **.canNode10.sourceApp[3].idDataFrames "\"76\""
config **.canNode10.sourceApp[3].periodicityDataFrames "\"0.01\""
config **.canNode10.sourceApp[3].initialDataFrameOffset "\"0\""
config **.canNode10.sourceApp[3].dataLengthDataFrames "\"64\""
config **.canNode10.sourceApp[4].idDataFrames "\"77\""
config **.canNode10.sourceApp[4].periodicityDataFrames "\"0.01\""
config **.canNode10.sourceApp[4].initialDataFrameOffset "\"0\""
config **.canNode10.sourceApp[4].dataLengthDataFrames "\"64\""
config **.canNode10.sourceApp[5].idDataFrames "\"78\""
config **.canNode10.sourceApp[5].periodicityDataFrames "\"0.01\""
config **.canNode10.sourceApp[5].initialDataFrameOffset "\"0\""
config **.canNode10.sourceApp[5].dataLengthDataFrames "\"64\""
config **.canNode10.sourceApp[6].idDataFrames "\"79\""
config **.canNode10.sourceApp[6].periodicityDataFrames "\"0.01\""
config **.canNode10.sourceApp[6].initialDataFrameOffset "\"0\""
config **.canNode10.sourceApp[6].dataLengthDataFrames "\"64\""
config **.canNode10.sourceApp[7].idDataFrames "\"80\""
config **.canNode10.sourceApp[7].periodicityDataFrames "\"0.01\""
config **.canNode10.sourceApp[7].initialDataFrameOffset "\"0\""
config **.canNode10.sourceApp[7].dataLengthDataFrames "\"64\""
config **.canNode11.numSinkApps 8
config **.canNode11.numInputBuffer 8
config **.canNode11.bufferIn[0].destination_gates "\"sinkApp[0].dataIn\""
config **.canNode11.bufferIn[0].idIncomingFrames "\"1\""
config **.canNode11.bufferIn[1].destination_gates "\"sinkApp[1].dataIn\""
config **.canNode11.bufferIn[1].idIncomingFrames "\"2\""
config **.canNode11.bufferIn[2].destination_gates "\"sinkApp[2].dataIn\""
config **.canNode11.bufferIn[2].idIncomingFrames "\"3\""
config **.canNode11.bufferIn[3].destination_gates "\"sinkApp[3].dataIn\""
config **.canNode11.bufferIn[3].idIncomingFrames "\"4\""
config **.canNode11.bufferIn[4].destination_gates "\"sinkApp[4].dataIn\""
config **.canNode11.bufferIn[4].idIncomingFrames "\"5\""
config **.canNode11.bufferIn[5].destination_gates "\"sinkApp[5].dataIn\""
config **.canNode11.bufferIn[5].idIncomingFrames "\"6\""
config **.canNode11.bufferIn[6].destination_gates "\"sinkApp[6].dataIn\""
config **.canNode11.bufferIn[6].idIncomingFrames "\"7\""
config **.canNode11.bufferIn[7].destination_gates "\"sinkApp[7].dataIn\""
config **.canNode11.bufferIn[7].idIncomingFrames "\"8\""
config **.canNode12.numSinkApps 8
config **.canNode12.numInputBuffer 8
config **.canNode12.bufferIn[0].destination_gates "\"sinkApp[0].dataIn\""
config **.canNode12.bufferIn[0].idIncomingFrames "\"9\""
config **.canNode12.bufferIn[1].destination_gates "\"sinkApp[1].dataIn\""
config **.canNode12.bufferIn[1].idIncomingFrames "\"10\""
config **.canNode12.bufferIn[2].destination_gates "\"sinkApp[2].dataIn\""
config **.canNode12.bufferIn[2].idIncomingFrames "\"11\""
config **.canNode12.bufferIn[3].destination_gates "\"sinkApp[3].dataIn\""
config **.canNode12.bufferIn[3].idIncomingFrames "\"12\""
config **.canNode12.bufferIn[4].destination_gates "\"sinkApp[4].dataIn\""
config **.canNode12.bufferIn[4].idIncomingFrames "\"13\""
config **.canNode12.bufferIn[5].destination_gates "\"sinkApp[5].dataIn\""
config **.canNode12.bufferIn[5].idIncomingFrames "\"14\""
config **.canNode12.bufferIn[6].destination_gates "\"sinkApp[6].dataIn\""
config **.canNode12.bufferIn[6].idIncomingFrames "\"15\""
config **.canNode12.bufferIn[7].destination_gates "\"sinkApp[7].dataIn\""
config **.canNode12.bufferIn[7].idIncomingFrames "\"16\""
config **.canNode13.numSinkApps 8
config **.canNode13.numInputBuffer 8
config **.canNode13.bufferIn[0].destination_gates "\"sinkApp[0].dataIn\""
config **.canNode13.bufferIn[0].idIncomingFrames "\"17\""
config **.canNode13.bufferIn[1].destination_gates "\"sinkApp[1].dataIn\""
config **.canNode13.bufferIn[1].idIncomingFrames "\"18\""
config **.canNode13.bufferIn[2].destination_gates "\"sinkApp[2].dataIn\""
config **.canNode13.bufferIn[2].idIncomingFrames "\"19\""
config **.canNode13.bufferIn[3].destination_gates "\"sinkApp[3].dataIn\""
config **.canNode13.bufferIn[3].idIncomingFrames "\"20\""
config **.canNode13.bufferIn[4].destination_gates "\"sinkApp[4].dataIn\""
config **.canNode13.bufferIn[4].idIncomingFrames "\"21\""
config **.canNode13.bufferIn[5].destination_gates "\"sinkApp[5].dataIn\""
config **.canNode13.bufferIn[5].idIncomingFrames "\"22\""
config **.canNode13.bufferIn[6].destination_gates "\"sinkApp[6].dataIn\""
config **.canNode13.bufferIn[6].idIncomingFrames "\"23\""
config **.canNode13.bufferIn[7].destination_gates "\"sinkApp[7].dataIn\""
config **.canNode13.bufferIn[7].idIncomingFrames "\"24\""
config **.canNode14.numSinkApps 8
config **.canNode14.numInputBuffer 8
config **.canNode14.bufferIn[0].destination_gates "\"sinkApp[0].dataIn\""
config **.canNode14.bufferIn[0].idIncomingFrames "\"25\""
config **.canNode14.bufferIn[1].destination_gates "\"sinkApp[1].dataIn\""
config **.canNode14.bufferIn[1].idIncomingFrames "\"26\""
config **.canNode14.bufferIn[2].destination_gates "\"sinkApp[2].dataIn\""
config **.canNode14.bufferIn[2].idIncomingFrames "\"27\""
config **.canNode14.bufferIn[3].destination_gates "\"sinkApp[3].dataIn\""
config **.canNode14.bufferIn[3].idIncomingFrames "\"28\""
config **.canNode14.bufferIn[4].destination_gates "\"sinkApp[4].dataIn\""
config **.canNode14.bufferIn[4].idIncomingFrames "\"29\""
config **.canNode14.bufferIn[5].destination_gates "\"sinkApp[5].dataIn\""
config **.canNode14.bufferIn[5].idIncomingFrames "\"30\""
config **.canNode14.bufferIn[6].destination_gates "\"sinkApp[6].dataIn\""
config **.canNode14.bufferIn[6].idIncomingFrames "\"31\""
config **.canNode14.bufferIn[7].destination_gates "\"sinkApp[7].dataIn\""
config **.canNode14.bufferIn[7].idIncomingFrames "\"32\""
config **.canNode15.numSinkApps 8
config **.canNode15.numInputBuffer 8
config **.canNode15.bufferIn[0].destination_gates "\"sinkApp[0].dataIn\""
config **.canNode15.bufferIn[0].idIncomingFrames "\"33\""
config **.canNode15.bufferIn[1].destination_gates "\"sinkApp[1].dataIn\""
config **.canNode15.bufferIn[1].idIncomingFrames "\"34\""
config **.canNode15.bufferIn[2].destination_gates "\"sinkApp[2].dataIn\""
config **.canNode15.bufferIn[2].idIncomingFrames "\"35\""
config **.canNode15.bufferIn[3].destination_gates "\"sinkApp[3].dataIn\""
config **.canNode15.bufferIn[3].idIncomingFrames "\"36\""
config **.canNode15.bufferIn[4].destination_gates "\"sinkApp[4].dataIn\""
config **.canNode15.bufferIn[4].idIncomingFrames "\"37\""
config **.canNode15.bufferIn[5].destination_gates "\"sinkApp[5].dataIn\""
config **.canNode15.bufferIn[5].idIncomingFrames "\"38\""
config **.canNode15.bufferIn[6].destination_gates "\"sinkApp[6].dataIn\""
config **.canNode15.bufferIn[6].idIncomingFrames "\"39\""
config **.canNode15.bufferIn[7].destination_gates "\"sinkApp[7].dataIn\""
config **.canNode15.bufferIn[7].idIncomingFrames "\"40\""
config **.canNode16.numSinkApps 8
config **.canNode16.numInputBuffer 8
config **.canNode16.bufferIn[0].destination_gates "\"sinkApp[0].dataIn\""
config **.canNode16.bufferIn[0].idIncomingFrames "\"41\""
config **.canNode16.bufferIn[1].destination_gates "\"sinkApp[1].dataIn\""
config **.canNode16.bufferIn[1].idIncomingFrames "\"42\""
config **.canNode16.bufferIn[2].destination_gates "\"sinkApp[2].dataIn\""
config **.canNode16.bufferIn[2].idIncomingFrames "\"43\""
config **.canNode16.bufferIn[3].destination_gates "\"sinkApp[3].dataIn\""
config **.canNode16.bufferIn[3].idIncomingFrames "\"44\""
config **.canNode16.bufferIn[4].destination_gates "\"sinkApp[4].dataIn\""
config **.canNode16.bufferIn[4].idIncomingFrames "\"45\""
config **.canNode16.bufferIn[5].destination_gates "\"sinkApp[5].dataIn\""
config **.canNode16.bufferIn[5].idIncomingFrames "\"46\""
config **.canNode16.bufferIn[6].destination_gates "\"sinkApp[6].dataIn\""
config **.canNode16.bufferIn[6].idIncomingFrames "\"47\""
config **.canNode16.bufferIn[7].destination_gates "\"sinkApp[7].dataIn\""
config **.canNode16.bufferIn[7].idIncomingFrames "\"48\""
config **.canNode17.numSinkApps 8
config **.canNode17.numInputBuffer 8
config **.canNode17.bufferIn[0].destination_gates "\"sinkApp[0].dataIn\""
config **.canNode17.bufferIn[0].idIncomingFrames "\"49\""
config **.canNode17.bufferIn[1].destination_gates "\"sinkApp[1].dataIn\""
config **.canNode17.bufferIn[1].idIncomingFrames "\"50\""
config **.canNode17.bufferIn[2].destination_gates "\"sinkApp[2].dataIn\""
config **.canNode17.bufferIn[2].idIncomingFrames "\"51\""
config **.canNode17.bufferIn[3].destination_gates "\"sinkApp[3].dataIn\""
config **.canNode17.bufferIn[3].idIncomingFrames "\"52\""
config **.canNode17.bufferIn[4].destination_gates "\"sinkApp[4].dataIn\""
config **.canNode17.bufferIn[4].idIncomingFrames "\"53\""
config **.canNode17.bufferIn[5].destination_gates "\"sinkApp[5].dataIn\""
config **.canNode17.bufferIn[5].idIncomingFrames "\"54\""
config **.canNode17.bufferIn[6].destination_gates "\"sinkApp[6].dataIn\""
config **.canNode17.bufferIn[6].idIncomingFrames "\"55\""
config **.canNode17.bufferIn[7].destination_gates "\"sinkApp[7].dataIn\""
config **.canNode17.bufferIn[7].idIncomingFrames "\"56\""
config **.canNode18.numSinkApps 8
config **.canNode18.numInputBuffer 8
config **.canNode18.bufferIn[0].destination_gates "\"sinkApp[0].dataIn\""
config **.canNode18.bufferIn[0].idIncomingFrames "\"57\""
config **.canNode18.bufferIn[1].destination_gates "\"sinkApp[1].dataIn\""
config **.canNode18.bufferIn[1].idIncomingFrames "\"58\""
config **.canNode18.bufferIn[2].destination_gates "\"sinkApp[2].dataIn\""
config **.canNode18.bufferIn[2].idIncomingFrames "\"59\""
config **.canNode18.bufferIn[3].destination_gates "\"sinkApp[3].dataIn\""
config **.canNode18.bufferIn[3].idIncomingFrames "\"60\""
config **.canNode18.bufferIn[4].destination_gates "\"sinkApp[4].dataIn\""
config **.canNode18.bufferIn[4].idIncomingFrames "\"61\""
config **.canNode18.bufferIn[5].destination_gates "\"sinkApp[5].dataIn\""
config **.canNode18.bufferIn[5].idIncomingFrames "\"62\""
config **.canNode18.bufferIn[6].destination_gates "\"sinkApp[6].dataIn\""
config **.canNode18.bufferIn[6].idIncomingFrames "\"63\""
config **.canNode18.bufferIn[7].destination_gates "\"sinkApp[7].dataIn\""
config **.canNode18.bufferIn[7].idIncomingFrames "\"64\""
config **.canNode19.numSinkApps 8
config **.canNode19.numInputBuffer 8
config **.canNode19.bufferIn[0].destination_gates "\"sinkApp[0].dataIn\""
config **.canNode19.bufferIn[0].idIncomingFrames "\"65\""
config **.canNode19.bufferIn[1].destination_gates "\"sinkApp[1].dataIn\""
config **.canNode19.bufferIn[1].idIncomingFrames "\"66\""
config **.canNode19.bufferIn[2].destination_gates "\"sinkApp[2].dataIn\""
config **.canNode19.bufferIn[2].idIncomingFrames "\"67\""
config **.canNode19.bufferIn[3].destination_gates "\"sinkApp[3].dataIn\""
config **.canNode19.bufferIn[3].idIncomingFrames "\"68\""
config **.canNode19.bufferIn[4].destination_gates "\"sinkApp[4].dataIn\""
config **.canNode19.bufferIn[4].idIncomingFrames "\"69\""
config **.canNode19.bufferIn[5].destination_gates "\"sinkApp[5].dataIn\""
config **.canNode19.bufferIn[5].idIncomingFrames "\"70\""
config **.canNode19.bufferIn[6].destination_gates "\"sinkApp[6].dataIn\""
config **.canNode19.bufferIn[6].idIncomingFrames "\"71\""
config **.canNode19.bufferIn[7].destination_gates "\"sinkApp[7].dataIn\""
config **.canNode19.bufferIn[7].idIncomingFrames "\"72\""
config **.canNode20.numSinkApps 8
config **.canNode20.numInputBuffer 8
config **.canNode20.bufferIn[0].destination_gates "\"sinkApp[0].dataIn\""
config **.canNode20.bufferIn[0].idIncomingFrames "\"73\""
config **.canNode20.bufferIn[1].destination_gates "\"sinkApp[1].dataIn\""
config **.canNode20.bufferIn[1].idIncomingFrames "\"74\""
config **.canNode20.bufferIn[2].destination_gates "\"sinkApp[2].dataIn\""
config **.canNode20.bufferIn[2].idIncomingFrames "\"75\""
config **.canNode20.bufferIn[3].destination_gates "\"sinkApp[3].dataIn\""
config **.canNode20.bufferIn[3].idIncomingFrames "\"76\""
config **.canNode20.bufferIn[4].destination_gates "\"sinkApp[4].dataIn\""
config **.canNode20.bufferIn[4].idIncomingFrames "\"77\""
config **.canNode20.bufferIn[5].destination_gates "\"sinkApp[5].dataIn\""
config **.canNode20.bufferIn[5].idIncomingFrames "\"78\""
config **.canNode20.bufferIn[6].destination_gates "\"sinkApp[6].dataIn\""
config **.canNode20.bufferIn[6].idIncomingFrames "\"79\""
config **.canNode20.bufferIn[7].destination_gates "\"sinkApp[7].dataIn\""
config **.canNode20.bufferIn[7].idIncomingFrames "\"80\""
config network can4cqf.simulations.large_network.Large_network
config **.transmissionSelectionAlgorithm[*].typename IEEE8021QbvSelectionAlgorithm
config **.configXML "xmldoc(\"GatewayConfig.xml\")"

vector 0 Large_network.gateway1.tsn[0].phy[0].shaper.transmissionSelection qPcp0Bytes:vector(packetBytes) ETV
attr interpolationmode none
attr recordingmode vector(packetBytes)
attr title "Received Bytes, packetBytes"
attr unit B
0	151410 9 0 0 0 0 1 0 0 0 0
vector 1 Large_network.gateway1.tsn[0].phy[0].shaper.transmissionSelection qPcp0Latency:vector ETV
attr interpolationmode none
attr recordingmode vector
attr title "End-to-end latency"
attr unit s
1	151419 9 0 0 0 0 1 0 0 0 0
vector 2 Large_network.gateway1.tsn[0].phy[0].shaper.transmissionSelection qPcp1Bytes:vector(packetBytes) ETV
attr interpolationmode none
attr recordingmode vector(packetBytes)
attr title "Received Bytes, packetBytes"
attr unit B
2	151428 9 0 0 0 0 1 0 0 0 0
vector 3 Large_network.gateway1.tsn[0].phy[0].shaper.transmissionSelection qPcp1Latency:vector ETV
attr interpolationmode none
attr recordingmode vector
attr title "End-to-end latency"
attr unit s
3	151437 9 0 0 0 0 1 0 0 0 0
vector 4 Large_network.gateway1.tsn[0].phy[0].shaper.transmissionSelection qPcp2Bytes:vector(packetBytes) ETV
attr interpolationmode none
attr recordingmode vector(packetBytes)
attr title "Received Bytes, packetBytes"
attr unit B
4	151446 9 0 0 0 0 1 0 0 0 0
vector 5 Large_network.gateway1.tsn[0].phy[0].shaper.transmissionSelection qPcp2Latency:vector ETV
attr interpolationmode none
attr recordingmode vector
attr title "End-to-end latency"
attr unit s
5	151455 9 0 0 0 0 1 0 0 0 0
vector 6 Large_network.gateway1.tsn[0].phy[0].shaper.transmissionSelection qPcp3Bytes:vector(packetBytes) ETV
attr interpolationmode none
attr recordingmode vector(packetBytes)
attr title "Received Bytes, packetBytes"
attr unit B
6	151464 9 0 0 0 0 1 0 0 0 0
vector 7 Large_network.gateway1.tsn[0].phy[0].shaper.transmissionSelection qPcp3Latency:vector ETV
attr interpolationmode none
attr recordingmode vector
attr title "End-to-end latency"
attr unit s
7	151473 9 0 0 0 0 1 0 0 0 0
vector 8 Large_network.gateway1.tsn[0].phy[0].shaper.transmissionSelection qPcp4Bytes:vector(packetBytes) ETV
attr interpolationmode none
attr recordingmode vector(packetBytes)
attr title "Received Bytes, packetBytes"
attr unit B
8	151482 9 0 0 0 0 1 0 0 0 0
vector 9 Large_network.gateway1.tsn[0].phy[0].shaper.transmissionSelection qPcp4Latency:vector ETV
attr interpolationmode none
attr recordingmode vector
attr title "End-to-end latency"
attr unit s
9	151491 9 0 0 0 0 1 0 0 0 0
vector 10 Large_network.gateway1.tsn[0].phy[0].shaper.transmissionSelection qPcp5Bytes:vector(packetBytes) ETV
attr interpolationmode none
attr recordingmode vector(packetBytes)
attr title "Received Bytes, packetBytes"
attr unit B
10	151500 10 0 0 0 0 1 0 0 0 0
vector 11 Large_network.gateway1.tsn[0].phy[0].shaper.transmissionSelection qPcp5Latency:vector ETV
attr interpolationmode none
attr recordingmode vector
attr title "End-to-end latency"
attr unit s
11	151510 10 0 0 0 0 1 0 0 0 0
vector 12 Large_network.gateway1.tsn[0].phy[0].shaper.transmissionSelection qPcp6Bytes:vector(packetBytes) ETV
attr interpolationmode none
attr recordingmode vector(packetBytes)
attr title "Received Bytes, packetBytes"
attr unit B
12	151520 10 0 0 0 0 1 0 0 0 0
vector 13 Large_network.gateway1.tsn[0].phy[0].shaper.transmissionSelection qPcp6Latency:vector ETV
attr interpolationmode none
attr recordingmode vector
attr title "End-to-end latency"
attr unit s
13	151530 10 0 0 0 0 1 0 0 0 0
vector 14 Large_network.gateway1.tsn[0].phy[0].shaper.transmissionSelection qPcp7Bytes:vector(packetBytes) ETV
attr interpolationmode none
attr recordingmode vector(packetBytes)
attr title "Received Bytes, packetBytes"
attr unit B
14	151540 72933 0 842272 0 1.04461344 3230 0 64 206656 13225984
14	13081232 75836 842710 1685375 1.045 2.07781344 3219 64 64 206016 13185024
14	26526367 76117 1689996 2532003 2.0842 3.1159 3208 64 64 205312 13139968
14	40108073 65102 2532095 3251247 3.116 3.99781344 2744 64 64 175616 11239424
vector 15 Large_network.gateway1.tsn[0].phy[0].shaper.transmissionSelection qPcp7Latency:vector ETV
attr interpolationmode none
attr recordingmode vector
attr title "End-to-end latency"
attr unit s
15	224473 91586 0 842272 0 1.04461344 3230 0 0.0003001 0.5400135 0.0001093642705724
15	13157068 94520 842710 1685375 1.045 2.07781344 3219 0.0001 0.0003001 0.54228162 0.0001105712251604
15	26602484 94662 1689996 2532003 2.0842 3.1159 3208 0.0001 0.0003001 0.52229103999999 0.0001030388052608
15	40173175 80980 2532095 3251247 3.116 3.99781344 2744 0.0001 0.0003001 0.47785916 0.0001004159461176
vector 16 Large_network.gateway2.tsn[0].phy[0].shaper.transmissionSelection qPcp0Bytes:vector(packetBytes) ETV
attr interpolationmode none
attr recordingmode vector(packetBytes)
attr title "Received Bytes, packetBytes"
attr unit B
16	316059 10 0 0 0 0 1 0 0 0 0
vector 17 Large_network.gateway2.tsn[0].phy[0].shaper.transmissionSelection qPcp0Latency:vector ETV
attr interpolationmode none
attr recordingmode vector
attr title "End-to-end latency"
attr unit s
17	316069 10 0 0 0 0 1 0 0 0 0
vector 18 Large_network.gateway2.tsn[0].phy[0].shaper.transmissionSelection qPcp1Bytes:vector(packetBytes) ETV
attr interpolationmode none
attr recordingmode vector(packetBytes)
attr title "Received Bytes, packetBytes"
attr unit B
18	316079 10 0 0 0 0 1 0 0 0 0
vector 19 Large_network.gateway2.tsn[0].phy[0].shaper.transmissionSelection qPcp1Latency:vector ETV
attr interpolationmode none
attr recordingmode vector
attr title "End-to-end latency"
attr unit s
19	316089 10 0 0 0 0 1 0 0 0 0
vector 20 Large_network.gateway2.tsn[0].phy[0].shaper.transmissionSelection qPcp2Bytes:vector(packetBytes) ETV
attr interpolationmode none
attr recordingmode vector(packetBytes)
attr title "Received Bytes, packetBytes"
attr unit B
20	316099 10 0 0 0 0 1 0 0 0 0
vector 21 Large_network.gateway2.tsn[0].phy[0].shaper.transmissionSelection qPcp2Latency:vector ETV
attr interpolationmode none
attr recordingmode vector
attr title "End-to-end latency"
attr unit s
21	316109 10 0 0 0 0 1 0 0 0 0
vector 22 Large_network.gateway2.tsn[0].phy[0].shaper.transmissionSelection qPcp3Bytes:vector(packetBytes) ETV
attr interpolationmode none
attr recordingmode vector(packetBytes)
attr title "Received Bytes, packetBytes"
attr unit B
22	316119 10 0 0 0 0 1 0 0 0 0
vector 23 Large_network.gateway2.tsn[0].phy[0].shaper.transmissionSelection qPcp3Latency:vector ETV
attr interpolationmode none
attr recordingmode vector
attr title "End-to-end latency"
attr unit s
23	316129 10 0 0 0 0 1 0 0 0 0
vector 24 Large_network.gateway2.tsn[0].phy[0].shaper.transmissionSelection qPcp4Bytes:vector(packetBytes) ETV
attr interpolationmode none
attr recordingmode vector(packetBytes)
attr title "Received Bytes, packetBytes"
attr unit B
24	316139 10 0 0 0 0 1 0 0 0 0
vector 25 Large_network.gateway2.tsn[0].phy[0].shaper.transmissionSelection qPcp4Latency:vector ETV
attr interpolationmode none
attr recordingmode vector
attr title "End-to-end latency"
attr unit s
25	316149 10 0 0 0 0 1 0 0 0 0
vector 26 Large_network.gateway2.tsn[0].phy[0].shaper.transmissionSelection qPcp5Bytes:vector(packetBytes) ETV
attr interpolationmode none
attr recordingmode vector(packetBytes)
attr title "Received Bytes, packetBytes"
attr unit B
26	316159 10 0 0 0 0 1 0 0 0 0
vector 27 Large_network.gateway2.tsn[0].phy[0].shaper.transmissionSelection qPcp5Latency:vector ETV
attr interpolationmode none
attr recordingmode vector
attr title "End-to-end latency"
attr unit s
27	316169 10 0 0 0 0 1 0 0 0 0
vector 28 Large_network.gateway2.tsn[0].phy[0].shaper.transmissionSelection qPcp6Bytes:vector(packetBytes) ETV
attr interpolationmode none
attr recordingmode vector(packetBytes)
attr title "Received Bytes, packetBytes"
attr unit B
28	316179 10 0 0 0 0 1 0 0 0 0
vector 29 Large_network.gateway2.tsn[0].phy[0].shaper.transmissionSelection qPcp6Latency:vector ETV
attr interpolationmode none
attr recordingmode vector
attr title "End-to-end latency"
attr unit s
29	316189 10 0 0 0 0 1 0 0 0 0
vector 30 Large_network.gateway2.tsn[0].phy[0].shaper.transmissionSelection qPcp7Bytes:vector(packetBytes) ETV
attr interpolationmode none
attr recordingmode vector(packetBytes)
attr title "Received Bytes, packetBytes"
attr unit B
30	316199 10 0 0 0 0 1 0 0 0 0
vector 31 Large_network.gateway2.tsn[0].phy[0].shaper.transmissionSelection qPcp7Latency:vector ETV
attr interpolationmode none
attr recordingmode vector
attr title "End-to-end latency"
attr unit s
31	316209 10 0 0 0 0 1 0 0 0 0
vector 32 Large_network.switch1.phy[0].shaper.transmissionSelection qPcp0Bytes:vector(packetBytes) ETV
attr interpolationmode none
attr recordingmode vector(packetBytes)
attr title "Received Bytes, packetBytes"
attr unit B
32	316219 10 0 0 0 0 1 0 0 0 0
vector 33 Large_network.switch1.phy[0].shaper.transmissionSelection qPcp0Latency:vector ETV
attr interpolationmode none
attr recordingmode vector
attr title "End-to-end latency"
attr unit s
33	316229 10 0 0 0 0 1 0 0 0 0
vector 34 Large_network.switch1.phy[0].shaper.transmissionSelection qPcp1Bytes:vector(packetBytes) ETV
attr interpolationmode none
attr recordingmode vector(packetBytes)
attr title "Received Bytes, packetBytes"
attr unit B
34	316239 10 0 0 0 0 1 0 0 0 0
vector 35 Large_network.switch1.phy[0].shaper.transmissionSelection qPcp1Latency:vector ETV
attr interpolationmode none
attr recordingmode vector
attr title "End-to-end latency"
attr unit s
35	316249 10 0 0 0 0 1 0 0 0 0
vector 36 Large_network.switch1.phy[0].shaper.transmissionSelection qPcp2Bytes:vector(packetBytes) ETV
attr interpolationmode none
attr recordingmode vector(packetBytes)
attr title "Received Bytes, packetBytes"
attr unit B
36	316259 10 0 0 0 0 1 0 0 0 0
vector 37 Large_network.switch1.phy[0].shaper.transmissionSelection qPcp2Latency:vector ETV
attr interpolationmode none
attr recordingmode vector
attr title "End-to-end latency"
attr unit s
37	316269 10 0 0 0 0 1 0 0 0 0
vector 38 Large_network.switch1.phy[0].shaper.transmissionSelection qPcp3Bytes:vector(packetBytes) ETV
attr interpolationmode none
attr recordingmode vector(packetBytes)
attr title "Received Bytes, packetBytes"
attr unit B
38	316279 10 0 0 0 0 1 0 0 0 0
vector 39 Large_network.switch1.phy[0].shaper.transmissionSelection qPcp3Latency:vector ETV
attr interpolationmode none
attr recordingmode vector
attr title "End-to-end latency"
attr unit s
39	316289 10 0 0 0 0 1 0 0 0 0
vector 40 Large_network.switch1.phy[0].shaper.transmissionSelection qPcp4Bytes:vector(packetBytes) ETV
attr interpolationmode none
attr recordingmode vector(packetBytes)
attr title "Received Bytes, packetBytes"
attr unit B
40	316299 10 0 0 0 0 1 0 0 0 0
vector 41 Large_network.switch1.phy[0].shaper.transmissionSelection qPcp4Latency:vector ETV
attr interpolationmode none
attr recordingmode vector
attr title "End-to-end latency"
attr unit s
41	316309 10 0 0 0 0 1 0 0 0 0
vector 42 Large_network.switch1.phy[0].shaper.transmissionSelection qPcp5Bytes:vector(packetBytes) ETV
attr interpolationmode none
attr recordingmode vector(packetBytes)
attr title "Received Bytes, packetBytes"
attr unit B
42	316319 10 0 0 0 0 1 0 0 0 0
vector 43 Large_network.switch1.phy[0].shaper.transmissionSelection qPcp5Latency:vector ETV
attr interpolationmode none
attr recordingmode vector
attr title "End-to-end latency"
attr unit s
43	316329 10 0 0 0 0 1 0 0 0 0
vector 44 Large_network.switch1.phy[0].shaper.transmissionSelection qPcp6Bytes:vector(packetBytes) ETV
attr interpolationmode none
attr recordingmode vector(packetBytes)
attr title "Received Bytes, packetBytes"
attr unit B
44	316339 10 0 0 0 0 1 0 0 0 0
vector 45 Large_network.switch1.phy[0].shaper.transmissionSelection qPcp6Latency:vector ETV
attr interpolationmode none
attr recordingmode vector
attr title "End-to-end latency"
attr unit s
45	316349 10 0 0 0 0 1 0 0 0 0
vector 46 Large_network.switch1.phy[0].shaper.transmissionSelection qPcp7Bytes:vector(packetBytes) ETV
attr interpolationmode none
attr recordingmode vector(packetBytes)
attr title "Received Bytes, packetBytes"
attr unit B
46	316359 10 0 0 0 0 1 0 0 0 0
vector 47 Large_network.switch1.phy[0].shaper.transmissionSelection qPcp7Latency:vector ETV
attr interpolationmode none
attr recordingmode vector
attr title "End-to-end latency"
attr unit s
47	316369 10 0 0 0 0 1 0 0 0 0
vector 48 Large_network.switch1.phy[1].shaper.transmissionSelection qPcp0Bytes:vector(packetBytes) ETV
attr interpolationmode none
attr recordingmode vector(packetBytes)
attr title "Received Bytes, packetBytes"
attr unit B
48	316379 10 0 0 0 0 1 0 0 0 0
vector 49 Large_network.switch1.phy[1].shaper.transmissionSelection qPcp0Latency:vector ETV
attr interpolationmode none
attr recordingmode vector
attr title "End-to-end latency"
attr unit s
49	316389 10 0 0 0 0 1 0 0 0 0
vector 50 Large_network.switch1.phy[1].shaper.transmissionSelection qPcp1Bytes:vector(packetBytes) ETV
attr interpolationmode none
attr recordingmode vector(packetBytes)
attr title "Received Bytes, packetBytes"
attr unit B
50	316399 10 0 0 0 0 1 0 0 0 0
vector 51 Large_network.switch1.phy[1].shaper.transmissionSelection qPcp1Latency:vector ETV
attr interpolationmode none
attr recordingmode vector
attr title "End-to-end latency"
attr unit s
51	316409 10 0 0 0 0 1 0 0 0 0
vector 52 Large_network.switch1.phy[1].shaper.transmissionSelection qPcp2Bytes:vector(packetBytes) ETV
attr interpolationmode none
attr recordingmode vector(packetBytes)
attr title "Received Bytes, packetBytes"
attr unit B
52	316419 10 0 0 0 0 1 0 0 0 0
vector 53 Large_network.switch1.phy[1].shaper.transmissionSelection qPcp2Latency:vector ETV
attr interpolationmode none
attr recordingmode vector
attr title "End-to-end latency"
attr unit s
53	316429 10 0 0 0 0 1 0 0 0 0
vector 54 Large_network.switch1.phy[1].shaper.transmissionSelection qPcp3Bytes:vector(packetBytes) ETV
attr interpolationmode none
attr recordingmode vector(packetBytes)
attr title "Received Bytes, packetBytes"
attr unit B
54	316439 10 0 0 0 0 1 0 0 0 0
vector 55 Large_network.switch1.phy[1].shaper.transmissionSelection qPcp3Latency:vector ETV
attr interpolationmode none
attr recordingmode vector
attr title "End-to-end latency"
attr unit s
55	316449 10 0 0 0 0 1 0 0 0 0
vector 56 Large_network.switch1.phy[1].shaper.transmissionSelection qPcp4Bytes:vector(packetBytes) ETV
attr interpolationmode none
attr recordingmode vector(packetBytes)
attr title "Received Bytes, packetBytes"
attr unit B
56	316459 10 0 0 0 0 1 0 0 0 0
vector 57 Large_network.switch1.phy[1].shaper.transmissionSelection qPcp4Latency:vector ETV
attr interpolationmode none
attr recordingmode vector
attr title "End-to-end latency"
attr unit s
57	316469 10 0 0 0 0 1 0 0 0 0
vector 58 Large_network.switch1.phy[1].shaper.transmissionSelection qPcp5Bytes:vector(packetBytes) ETV
attr interpolationmode none
attr recordingmode vector(packetBytes)
attr title "Received Bytes, packetBytes"
attr unit B
58	316479 10 0 0 0 0 1 0 0 0 0
vector 59 Large_network.switch1.phy[1].shaper.transmissionSelection qPcp5Latency:vector ETV
attr interpolationmode none
attr recordingmode vector
attr title "End-to-end latency"
attr unit s
59	316489 10 0 0 0 0 1 0 0 0 0
vector 60 Large_network.switch1.phy[1].shaper.transmissionSelection qPcp6Bytes:vector(packetBytes) ETV
attr interpolationmode none
attr recordingmode vector(packetBytes)
attr title "Received Bytes, packetBytes"
attr unit B
60	316499 10 0 0 0 0 1 0 0 0 0
vector 61 Large_network.switch1.phy[1].shaper.transmissionSelection qPcp6Latency:vector ETV
attr interpolationmode none
attr recordingmode vector
attr title "End-to-end latency"
attr unit s
61	316509 10 0 0 0 0 1 0 0 0 0
vector 62 Large_network.switch1.phy[1].shaper.transmissionSelection qPcp7Bytes:vector(packetBytes) ETV
attr interpolationmode none
attr recordingmode vector(packetBytes)
attr title "Received Bytes, packetBytes"
attr unit B
62	316519 79530 0 842278 0 1.04461377 3228 0 64 206528 13217792
62	13251588 82736 842295 1685411 1.04462049 2.07782721 3221 64 64 206144 13193216
62	26697146 83002 1690008 2532015 2.08421377 3.11591377 3208 64 64 205312 13139968
62	40254155 71151 2532219 3251283 3.1162001 3.99782721 2744 64 64 175616 11239424
vector 63 Large_network.switch1.phy[1].shaper.transmissionSelection qPcp7Latency:vector ETV
attr interpolationmode none
attr recordingmode vector
attr title "End-to-end latency"
attr unit s
63	396049 104651 0 842278 0 1.04461377 3228 0 0.00031387 0.62529226000001 0.0001418169463714
63	13334324 108118 842295 1685411 1.04462049 2.07782721 3221 0.00011377 0.00031387 0.62477384000001 0.0001418317911258
63	26780148 108265 1690008 2532015 2.08421377 3.11591377 3208 0.00011377 0.00031387 0.61993811000001 0.0001401611042733
63	40325306 92914 2532219 3251283 3.1162001 3.99782721 2744 0.00011377 0.00031387 0.53408771 0.0001217292081945
vector 64 Large_network.switch2.phy[0].shaper.transmissionSelection qPcp0Bytes:vector(packetBytes) ETV
attr interpolationmode none
attr recordingmode vector(packetBytes)
attr title "Received Bytes, packetBytes"
attr unit B
64	500700 10 0 0 0 0 1 0 0 0 0
vector 65 Large_network.switch2.phy[0].shaper.transmissionSelection qPcp0Latency:vector ETV
attr interpolationmode none
attr recordingmode vector
attr title "End-to-end latency"
attr unit s
65	500710 10 0 0 0 0 1 0 0 0 0
vector 66 Large_network.switch2.phy[0].shaper.transmissionSelection qPcp1Bytes:vector(packetBytes) ETV
attr interpolationmode none
attr recordingmode vector(packetBytes)
attr title "Received Bytes, packetBytes"
attr unit B
66	500720 10 0 0 0 0 1 0 0 0 0
vector 67 Large_network.switch2.phy[0].shaper.transmissionSelection qPcp1Latency:vector ETV
attr interpolationmode none
attr recordingmode vector
attr title "End-to-end latency"
attr unit s
67	500730 10 0 0 0 0 1 0 0 0 0
vector 68 Large_network.switch2.phy[0].shaper.transmissionSelection qPcp2Bytes:vector(packetBytes) ETV
attr interpolationmode none
attr recordingmode vector(packetBytes)
attr title "Received Bytes, packetBytes"
attr unit B
68	500740 10 0 0 0 0 1 0 0 0 0
vector 69 Large_network.switch2.phy[0].shaper.transmissionSelection qPcp2Latency:vector ETV
attr interpolationmode none
attr recordingmode vector
attr title "End-to-end latency"
attr unit s
69	500750 10 0 0 0 0 1 0 0 0 0
vector 70 Large_network.switch2.phy[0].shaper.transmissionSelection qPcp3Bytes:vector(packetBytes) ETV
attr interpolationmode none
attr recordingmode vector(packetBytes)
attr title "Received Bytes, packetBytes"
attr unit B
70	500760 10 0 0 0 0 1 0 0 0 0
vector 71 Large_network.switch2.phy[0].shaper.transmissionSelection qPcp3Latency:vector ETV
attr interpolationmode none
attr recordingmode vector
attr title "End-to-end latency"
attr unit s
71	500770 10 0 0 0 0 1 0 0 0 0
vector 72 Large_network.switch2.phy[0].shaper.transmissionSelection qPcp4Bytes:vector(packetBytes) ETV
attr interpolationmode none
attr recordingmode vector(packetBytes)
attr title "Received Bytes, packetBytes"
attr unit B
72	500780 10 0 0 0 0 1 0 0 0 0
vector 73 Large_network.switch2.phy[0].shaper.transmissionSelection qPcp4Latency:vector ETV
attr interpolationmode none
attr recordingmode vector
attr title "End-to-end latency"
attr unit s
73	500790 10 0 0 0 0 1 0 0 0 0
vector 74 Large_network.switch2.phy[0].shaper.transmissionSelection qPcp5Bytes:vector(packetBytes) ETV
attr interpolationmode none
attr recordingmode vector(packetBytes)
attr title "Received Bytes, packetBytes"
attr unit B
74	500800 10 0 0 0 0 1 0 0 0 0
vector 75 Large_network.switch2.phy[0].shaper.transmissionSelection qPcp5Latency:vector ETV
attr interpolationmode none
attr recordingmode vector
attr title "End-to-end latency"
attr unit s
75	500810 10 0 0 0 0 1 0 0 0 0
vector 76 Large_network.switch2.phy[0].shaper.transmissionSelection qPcp6Bytes:vector(packetBytes) ETV
attr interpolationmode none
attr recordingmode vector(packetBytes)
attr title "Received Bytes, packetBytes"
attr unit B
76	500820 10 0 0 0 0 1 0 0 0 0
vector 77 Large_network.switch2.phy[0].shaper.transmissionSelection qPcp6Latency:vector ETV
attr interpolationmode none
attr recordingmode vector
attr title "End-to-end latency"
attr unit s
77	500830 10 0 0 0 0 1 0 0 0 0
vector 78 Large_network.switch2.phy[0].shaper.transmissionSelection qPcp7Bytes:vector(packetBytes) ETV
attr interpolationmode none
attr recordingmode vector(packetBytes)
attr title "Received Bytes, packetBytes"
attr unit B
78	500840 10 0 0 0 0 1 0 0 0 0
vector 79 Large_network.switch2.phy[0].shaper.transmissionSelection qPcp7Latency:vector ETV
attr interpolationmode none
attr recordingmode vector
attr title "End-to-end latency"
attr unit s
79	500850 10 0 0 0 0 1 0 0 0 0
vector 80 Large_network.switch2.phy[1].shaper.transmissionSelection qPcp0Bytes:vector(packetBytes) ETV
attr interpolationmode none
attr recordingmode vector(packetBytes)
attr title "Received Bytes, packetBytes"
attr unit B
80	500860 10 0 0 0 0 1 0 0 0 0
vector 81 Large_network.switch2.phy[1].shaper.transmissionSelection qPcp0Latency:vector ETV
attr interpolationmode none
attr recordingmode vector
attr title "End-to-end latency"
attr unit s
81	500870 10 0 0 0 0 1 0 0 0 0
vector 82 Large_network.switch2.phy[1].shaper.transmissionSelection qPcp1Bytes:vector(packetBytes) ETV
attr interpolationmode none
attr recordingmode vector(packetBytes)
attr title "Received Bytes, packetBytes"
attr unit B
82	500880 10 0 0 0 0 1 0 0 0 0
vector 83 Large_network.switch2.phy[1].shaper.transmissionSelection qPcp1Latency:vector ETV
attr interpolationmode none
attr recordingmode vector
attr title "End-to-end latency"
attr unit s
83	500890 10 0 0 0 0 1 0 0 0 0
vector 84 Large_network.switch2.phy[1].shaper.transmissionSelection qPcp2Bytes:vector(packetBytes) ETV
attr interpolationmode none
attr recordingmode vector(packetBytes)
attr title "Received Bytes, packetBytes"
attr unit B
84	500900 10 0 0 0 0 1 0 0 0 0
vector 85 Large_network.switch2.phy[1].shaper.transmissionSelection qPcp2Latency:vector ETV
attr interpolationmode none
attr recordingmode vector
attr title "End-to-end latency"
attr unit s
85	500910 10 0 0 0 0 1 0 0 0 0
vector 86 Large_network.switch2.phy[1].shaper.transmissionSelection qPcp3Bytes:vector(packetBytes) ETV
attr interpolationmode none
attr recordingmode vector(packetBytes)
attr title "Received Bytes, packetBytes"
attr unit B
86	500920 10 0 0 0 0 1 0 0 0 0
vector 87 Large_network.switch2.phy[1].shaper.transmissionSelection qPcp3Latency:vector ETV
attr interpolationmode none
attr recordingmode vector
attr title "End-to-end latency"
attr unit s
87	500930 10 0 0 0 0 1 0 0 0 0
vector 88 Large_network.switch2.phy[1].shaper.transmissionSelection qPcp4Bytes:vector(packetBytes) ETV
attr interpolationmode none
attr recordingmode vector(packetBytes)
attr title "Received Bytes, packetBytes"
attr unit B
88	500940 10 0 0 0 0 1 0 0 0 0
vector 89 Large_network.switch2.phy[1].shaper.transmissionSelection qPcp4Latency:vector ETV
attr interpolationmode none
attr recordingmode vector
attr title "End-to-end latency"
attr unit s
89	500950 10 0 0 0 0 1 0 0 0 0
vector 90 Large_network.switch2.phy[1].shaper.transmissionSelection qPcp5Bytes:vector(packetBytes) ETV
attr interpolationmode none
attr recordingmode vector(packetBytes)
attr title "Received Bytes, packetBytes"
attr unit B
90	500960 10 0 0 0 0 1 0 0 0 0
vector 91 Large_network.switch2.phy[1].shaper.transmissionSelection qPcp5Latency:vector ETV
attr interpolationmode none
attr recordingmode vector
attr title "End-to-end latency"
attr unit s
91	500970 10 0 0 0 0 1 0 0 0 0
vector 92 Large_network.switch2.phy[1].shaper.transmissionSelection qPcp6Bytes:vector(packetBytes) ETV
attr interpolationmode none
attr recordingmode vector(packetBytes)
attr title "Received Bytes, packetBytes"
attr unit B
92	500980 10 0 0 0 0 1 0 0 0 0
vector 93 Large_network.switch2.phy[1].shaper.transmissionSelection qPcp6Latency:vector ETV
attr interpolationmode none
attr recordingmode vector
attr title "End-to-end latency"
attr unit s
93	500990 10 0 0 0 0 1 0 0 0 0
vector 94 Large_network.switch2.phy[1].shaper.transmissionSelection qPcp7Bytes:vector(packetBytes) ETV
attr interpolationmode none
attr recordingmode vector(packetBytes)
attr title "Received Bytes, packetBytes"
attr unit B
94	501000 80218 0 841920 0 1.04432763 3227 0 64 206464 13213696
94	13442442 83158 842314 1685447 1.04462763 2.07784107 3222 64 64 206208 13197312
94	26888413 83408 1690020 2532027 2.08422763 3.11592763 3208 64 64 205312 13139968
94	40418220 71344 2532251 3251319 3.11621396 3.99784107 2744 64 64 175616 11239424
vector 95 Large_network.switch2.phy[1].shaper.transmissionSelection qPcp7Latency:vector ETV
attr interpolationmode none
attr recordingmode vector
attr title "End-to-end latency"
attr unit s
95	581218 106026 0 841920 0 1.04432763 3227 0 0.00032773 0.66969085000001 0.0001596626118109
95	13525600 108934 842314 1685447 1.04462763 2.07784107 3222 0.00012763 0.00032773 0.66974453000002 0.0001598766161991
95	26971821 109072 1690020 2532027 2.08422763 3.11592763 3208 0.00012763 0.00032773 0.66440099000001 0.0001579620441993
95	40489564 93296 2532251 3251319 3.11621396 3.99784107 2744 0.00012763 0.00032773 0.57211955000001 0.0001370612408181
vector 96 Large_network.switch3.phy[0].shaper.transmissionSelection qPcp0Bytes:vector(packetBytes) ETV
attr interpolationmode none
attr recordingmode vector(packetBytes)
attr title "Received Bytes, packetBytes"
attr unit B
96	687244 10 0 0 0 0 1 0 0 0 0
vector 97 Large_network.switch3.phy[0].shaper.transmissionSelection qPcp0Latency:vector ETV
attr interpolationmode none
attr recordingmode vector
attr title "End-to-end latency"
attr unit s
97	687254 10 0 0 0 0 1 0 0 0 0
vector 98 Large_network.switch3.phy[0].shaper.transmissionSelection qPcp1Bytes:vector(packetBytes) ETV
attr interpolationmode none
attr recordingmode vector(packetBytes)
attr title "Received Bytes, packetBytes"
attr unit B
98	687264 10 0 0 0 0 1 0 0 0 0
vector 99 Large_network.switch3.phy[0].shaper.transmissionSelection qPcp1Latency:vector ETV
attr interpolationmode none
attr recordingmode vector
attr title "End-to-end latency"
attr unit s
99	687274 10 0 0 0 0 1 0 0 0 0
vector 100 Large_network.switch3.phy[0].shaper.transmissionSelection qPcp2Bytes:vector(packetBytes) ETV
attr interpolationmode none
attr recordingmode vector(packetBytes)
attr title "Received Bytes, packetBytes"
attr unit B
100	687284 11 0 0 0 0 1 0 0 0 0
vector 101 Large_network.switch3.phy[0].shaper.transmissionSelection qPcp2Latency:vector ETV
attr interpolationmode none
attr recordingmode vector
attr title "End-to-end latency"
attr unit s
101	687295 11 0 0 0 0 1 0 0 0 0
vector 102 Large_network.switch3.phy[0].shaper.transmissionSelection qPcp3Bytes:vector(packetBytes) ETV
attr interpolationmode none
attr recordingmode vector(packetBytes)
attr title "Received Bytes, packetBytes"
attr unit B
102	687306 11 0 0 0 0 1 0 0 0 0
vector 103 Large_network.switch3.phy[0].shaper.transmissionSelection qPcp3Latency:vector ETV
attr interpolationmode none
attr recordingmode vector
attr title "End-to-end latency"
attr unit s
103	687317 11 0 0 0 0 1 0 0 0 0
vector 104 Large_network.switch3.phy[0].shaper.transmissionSelection qPcp4Bytes:vector(packetBytes) ETV
attr interpolationmode none
attr recordingmode vector(packetBytes)
attr title "Received Bytes, packetBytes"
attr unit B
104	687328 11 0 0 0 0 1 0 0 0 0
vector 105 Large_network.switch3.phy[0].shaper.transmissionSelection qPcp4Latency:vector ETV
attr interpolationmode none
attr recordingmode vector
attr title "End-to-end latency"
attr unit s
105	687339 11 0 0 0 0 1 0 0 0 0
vector 106 Large_network.switch3.phy[0].shaper.transmissionSelection qPcp5Bytes:vector(packetBytes) ETV
attr interpolationmode none
attr recordingmode vector(packetBytes)
attr title "Received Bytes, packetBytes"
attr unit B
106	687350 11 0 0 0 0 1 0 0 0 0
vector 107 Large_network.switch3.phy[0].shaper.transmissionSelection qPcp5Latency:vector ETV
attr interpolationmode none
attr recordingmode vector
attr title "End-to-end latency"
attr unit s
107	687361 11 0 0 0 0 1 0 0 0 0
vector 108 Large_network.switch3.phy[0].shaper.transmissionSelection qPcp6Bytes:vector(packetBytes) ETV
attr interpolationmode none
attr recordingmode vector(packetBytes)
attr title "Received Bytes, packetBytes"
attr unit B
108	687372 11 0 0 0 0 1 0 0 0 0
vector 109 Large_network.switch3.phy[0].shaper.transmissionSelection qPcp6Latency:vector ETV
attr interpolationmode none
attr recordingmode vector
attr title "End-to-end latency"
attr unit s
109	687383 11 0 0 0 0 1 0 0 0 0
vector 110 Large_network.switch3.phy[0].shaper.transmissionSelection qPcp7Bytes:vector(packetBytes) ETV
attr interpolationmode none
attr recordingmode vector(packetBytes)
attr title "Received Bytes, packetBytes"
attr unit B
110	687394 11 0 0 0 0 1 0 0 0 0
vector 111 Large_network.switch3.phy[0].shaper.transmissionSelection qPcp7Latency:vector ETV
attr interpolationmode none
attr recordingmode vector
attr title "End-to-end latency"
attr unit s
111	687405 11 0 0 0 0 1 0 0 0 0
vector 112 Large_network.switch3.phy[1].shaper.transmissionSelection qPcp0Bytes:vector(packetBytes) ETV
attr interpolationmode none
attr recordingmode vector(packetBytes)
attr title "Received Bytes, packetBytes"
attr unit B
112	687416 11 0 0 0 0 1 0 0 0 0
vector 113 Large_network.switch3.phy[1].shaper.transmissionSelection qPcp0Latency:vector ETV
attr interpolationmode none
attr recordingmode vector
attr title "End-to-end latency"
attr unit s
113	687427 11 0 0 0 0 1 0 0 0 0
vector 114 Large_network.switch3.phy[1].shaper.transmissionSelection qPcp1Bytes:vector(packetBytes) ETV
attr interpolationmode none
attr recordingmode vector(packetBytes)
attr title "Received Bytes, packetBytes"
attr unit B
114	687438 11 0 0 0 0 1 0 0 0 0
vector 115 Large_network.switch3.phy[1].shaper.transmissionSelection qPcp1Latency:vector ETV
attr interpolationmode none
attr recordingmode vector
attr title "End-to-end latency"
attr unit s
115	687449 11 0 0 0 0 1 0 0 0 0
vector 116 Large_network.switch3.phy[1].shaper.transmissionSelection qPcp2Bytes:vector(packetBytes) ETV
attr interpolationmode none
attr recordingmode vector(packetBytes)
attr title "Received Bytes, packetBytes"
attr unit B
116	687460 11 0 0 0 0 1 0 0 0 0
vector 117 Large_network.switch3.phy[1].shaper.transmissionSelection qPcp2Latency:vector ETV
attr interpolationmode none
attr recordingmode vector
attr title "End-to-end latency"
attr unit s
117	687471 11 0 0 0 0 1 0 0 0 0
vector 118 Large_network.switch3.phy[1].shaper.transmissionSelection qPcp3Bytes:vector(packetBytes) ETV
attr interpolationmode none
attr recordingmode vector(packetBytes)
attr title "Received Bytes, packetBytes"
attr unit B
118	687482 11 0 0 0 0 1 0 0 0 0
vector 119 Large_network.switch3.phy[1].shaper.transmissionSelection qPcp3Latency:vector ETV
attr interpolationmode none
attr recordingmode vector
attr title "End-to-end latency"
attr unit s
119	687493 11 0 0 0 0 1 0 0 0 0
vector 120 Large_network.switch3.phy[1].shaper.transmissionSelection qPcp4Bytes:vector(packetBytes) ETV
attr interpolationmode none
attr recordingmode vector(packetBytes)
attr title "Received Bytes, packetBytes"
attr unit B
120	687504 11 0 0 0 0 1 0 0 0 0
vector 121 Large_network.switch3.phy[1].shaper.transmissionSelection qPcp4Latency:vector ETV
attr interpolationmode none
attr recordingmode vector
attr title "End-to-end latency"
attr unit s
121	687515 11 0 0 0 0 1 0 0 0 0
vector 122 Large_network.switch3.phy[1].shaper.transmissionSelection qPcp5Bytes:vector(packetBytes) ETV
attr interpolationmode none
attr recordingmode vector(packetBytes)
attr title "Received Bytes, packetBytes"
attr unit B
122	687526 11 0 0 0 0 1 0 0 0 0
vector 123 Large_network.switch3.phy[1].shaper.transmissionSelection qPcp5Latency:vector ETV
attr interpolationmode none
attr recordingmode vector
attr title "End-to-end latency"
attr unit s
123	687537 11 0 0 0 0 1 0 0 0 0
vector 124 Large_network.switch3.phy[1].shaper.transmissionSelection qPcp6Bytes:vector(packetBytes) ETV
attr interpolationmode none
attr recordingmode vector(packetBytes)
attr title "Received Bytes, packetBytes"
attr unit B
124	687548 11 0 0 0 0 1 0 0 0 0
vector 125 Large_network.switch3.phy[1].shaper.transmissionSelection qPcp6Latency:vector ETV
attr interpolationmode none
attr recordingmode vector
attr title "End-to-end latency"
attr unit s
125	687559 11 0 0 0 0 1 0 0 0 0
vector 126 Large_network.switch3.phy[1].shaper.transmissionSelection qPcp7Bytes:vector(packetBytes) ETV
attr interpolationmode none
attr recordingmode vector(packetBytes)
attr title "Received Bytes, packetBytes"
attr unit B
126	687570 83446 0 841965 0 1.04434149 3227 0 64 206464 13213696
126	13634534 86382 842350 1685490 1.04464149 2.07785493 3222 64 64 206208 13197312
126	27080893 86616 1690032 2532040 2.08424149 3.11594149 3208 64 64 205312 13139968
126	40582860 74088 2532291 3251362 3.11622782 3.99785493 2744 64 64 175616 11239424
vector 127 Large_network.switch3.phy[1].shaper.transmissionSelection qPcp7Latency:vector ETV
attr interpolationmode none
attr recordingmode vector
attr title "End-to-end latency"
attr unit s
127	771016 109254 0 841965 0 1.04434149 3227 0 0.00034159 0.71440321 0.0001788461554825
127	13720916 112158 842350 1685490 1.04464149 2.07785493 3222 0.00014149 0.00034159 0.71440145 0.0001790608794819
127	27167509 112280 1690032 2532040 2.08424149 3.11594149 3208 0.00014149 0.00034159 0.70886387000001 0.0001769954951589
127	40656948 96040 2532291 3251362 3.11622782 3.99785493 2744 0.00014149 0.00034159 0.61015139000001 0.0001534475160465
vector 128 Large_network.canNode1.canClock clockDrift:vector ETV
attr interpolationmode linear
attr recordingmode vector
attr source clockDrift
attr title clockDrift
attr unit s
128	880270 15784 0 838075 0 1.04 848 0 0 0 0
128	13833074 16392 846226 1686267 1.05 2.08 832 0 0 0 0
128	27279789 16376 1694418 2526293 2.09 3.11 824 0 0 0 0
128	40752988 14152 2534436 3252139 3.12 4 712 0 0 0 0
vector 129 Large_network.canNode2.canClock clockDrift:vector ETV
attr interpolationmode linear
attr recordingmode vector
attr source clockDrift
attr title clockDrift
attr unit s
129	896054 15784 0 838083 0 1.04 848 0 0 0 0
129	13849466 16392 846234 1686275 1.05 2.08 832 0 0 0 0
129	27296165 16376 1694426 2526301 2.09 3.11 824 0 0 0 0
129	40767140 14152 2534444 3252147 3.12 4 712 0 0 0 0
vector 130 Large_network.canNode3.canClock clockDrift:vector ETV
attr interpolationmode linear
attr recordingmode vector
attr source clockDrift
attr title clockDrift
attr unit s
130	911838 15784 0 838091 0 1.04 848 0 0 0 0
130	13865858 16392 846242 1686283 1.05 2.08 832 0 0 0 0
130	27312541 16376 1694434 2526309 2.09 3.11 824 0 0 0 0
130	40781292 14152 2534452 3252155 3.12 4 712 0 0 0 0
vector 131 Large_network.canNode4.canClock clockDrift:vector ETV
attr interpolationmode linear
attr recordingmode vector
attr source clockDrift
attr title clockDrift
attr unit s
131	927622 15784 0 838099 0 1.04 848 0 0 0 0
131	13882250 16392 846250 1686291 1.05 2.08 832 0 0 0 0
131	27328917 16376 1694442 2526317 2.09 3.11 824 0 0 0 0
131	40795444 14152 2534460 3252163 3.12 4 712 0 0 0 0
vector 132 Large_network.canNode5.canClock clockDrift:vector ETV
attr interpolationmode linear
attr recordingmode vector
attr source clockDrift
attr title clockDrift
attr unit s
132	943406 15784 0 838107 0 1.04 848 0 0 0 0
132	13898642 16392 846258 1686299 1.05 2.08 832 0 0 0 0
132	27345293 16376 1694450 2526325 2.09 3.11 824 0 0 0 0
132	40809596 14152 2534468 3252171 3.12 4 712 0 0 0 0
vector 133 Large_network.canNode6.canClock clockDrift:vector ETV
attr interpolationmode linear
attr recordingmode vector
attr source clockDrift
attr title clockDrift
attr unit s
133	959190 15784 0 838115 0 1.04 848 0 0 0 0
133	13915034 16392 846266 1686307 1.05 2.08 832 0 0 0 0
133	27361669 16376 1694458 2526333 2.09 3.11 824 0 0 0 0
133	40823748 14152 2534476 3252179 3.12 4 712 0 0 0 0
vector 134 Large_network.canNode7.canClock clockDrift:vector ETV
attr interpolationmode linear
attr recordingmode vector
attr source clockDrift
attr title clockDrift
attr unit s
134	974974 15784 0 838123 0 1.04 848 0 0 0 0
134	13931426 16392 846274 1686315 1.05 2.08 832 0 0 0 0
134	27378045 16376 1694466 2526341 2.09 3.11 824 0 0 0 0
134	40837900 14152 2534484 3252187 3.12 4 712 0 0 0 0
vector 135 Large_network.canNode8.canClock clockDrift:vector ETV
attr interpolationmode linear
attr recordingmode vector
attr source clockDrift
attr title clockDrift
attr unit s
135	990758 15784 0 838131 0 1.04 848 0 0 0 0
135	13947818 16392 846282 1686323 1.05 2.08 832 0 0 0 0
135	27394421 16376 1694474 2526349 2.09 3.11 824 0 0 0 0
135	40852052 14152 2534492 3252195 3.12 4 712 0 0 0 0
vector 136 Large_network.canNode9.canClock clockDrift:vector ETV
attr interpolationmode linear
attr recordingmode vector
attr source clockDrift
attr title clockDrift
attr unit s
136	1006542 15784 0 838139 0 1.04 848 0 0 0 0
136	13964210 16392 846290 1686331 1.05 2.08 832 0 0 0 0
136	27410797 16376 1694482 2526357 2.09 3.11 824 0 0 0 0
136	40866204 14152 2534500 3252203 3.12 4 712 0 0 0 0
vector 137 Large_network.canNode10.canClock clockDrift:vector ETV
attr interpolationmode linear
attr recordingmode vector
attr source clockDrift
attr title clockDrift
attr unit s
137	1022326 15784 0 838147 0 1.04 848 0 0 0 0
137	13980602 16392 846298 1686339 1.05 2.08 832 0 0 0 0
137	27427173 16376 1694490 2526365 2.09 3.11 824 0 0 0 0
137	40880356 14152 2534508 3252211 3.12 4 712 0 0 0 0
vector 138 Large_network.canNode11.canClock clockDrift:vector ETV
attr interpolationmode linear
attr recordingmode vector
attr source clockDrift
attr title clockDrift
attr unit s
138	1038110 11 0 0 0 0 1 0 0 0 0
vector 139 Large_network.canNode12.canClock clockDrift:vector ETV
attr interpolationmode linear
attr recordingmode vector
attr source clockDrift
attr title clockDrift
attr unit s
139	1038121 11 0 0 0 0 1 0 0 0 0
vector 140 Large_network.canNode13.canClock clockDrift:vector ETV
attr interpolationmode linear
attr recordingmode vector
attr source clockDrift
attr title clockDrift
attr unit s
140	1038132 11 0 0 0 0 1 0 0 0 0
vector 141 Large_network.canNode14.canClock clockDrift:vector ETV
attr interpolationmode linear
attr recordingmode vector
attr source clockDrift
attr title clockDrift
attr unit s
141	1038143 11 0 0 0 0 1 0 0 0 0
vector 142 Large_network.canNode15.canClock clockDrift:vector ETV
attr interpolationmode linear
attr recordingmode vector
attr source clockDrift
attr title clockDrift
attr unit s
142	1038154 11 0 0 0 0 1 0 0 0 0
vector 143 Large_network.canNode16.canClock clockDrift:vector ETV
attr interpolationmode linear
attr recordingmode vector
attr source clockDrift
attr title clockDrift
attr unit s
143	1038165 11 0 0 0 0 1 0 0 0 0
vector 144 Large_network.canNode17.canClock clockDrift:vector ETV
attr interpolationmode linear
attr recordingmode vector
attr source clockDrift
attr title clockDrift
attr unit s
144	1038176 11 0 0 0 0 1 0 0 0 0
vector 145 Large_network.canNode18.canClock clockDrift:vector ETV
attr interpolationmode linear
attr recordingmode vector
attr source clockDrift
attr title clockDrift
attr unit s
145	1038187 11 0 0 0 0 1 0 0 0 0
vector 146 Large_network.canNode19.canClock clockDrift:vector ETV
attr interpolationmode linear
attr recordingmode vector
attr source clockDrift
attr title clockDrift
attr unit s
146	1038198 11 0 0 0 0 1 0 0 0 0
vector 147 Large_network.canNode20.canClock clockDrift:vector ETV
attr interpolationmode linear
attr recordingmode vector
attr source clockDrift
attr title clockDrift
attr unit s
147	1038209 11 0 0 0 0 1 0 0 0 0
vector 148 Large_network.gateway1.can[0].canClock clockDrift:vector ETV
attr interpolationmode linear
attr recordingmode vector
attr source clockDrift
attr title clockDrift
attr unit s
148	1038220 11 0 0 0 0 1 0 0 0 0
vector 149 Large_network.gateway2.can[0].canClock clockDrift:vector ETV
attr interpolationmode linear
attr recordingmode vector
attr source clockDrift
attr title clockDrift
attr unit s
149	1038231 11 0 0 0 0 1 0 0 0 0
vector 150 Large_network.gateway1.tsn[0].phy[0].shaper.transmissionGate[7] state:vector ETV
attr "" ""
attr interpolationmode sample-hold
attr recordingmode vector
attr source NF_QBV_STATE_CHANGED
attr title State
150	1038242 112057 1 842202 0 1.0446 5224 0 1 2612 2612
150	13996994 115987 842483 1686198 1.0448 2.0798001 5176 0 1 2588 2588
150	27443549 118571 1686429 2531811 2.08 3.1158001 5180 0 1 2590 2590
150	40894508 98239 2532102 3252304 3.1160001 4 4421 0 1 2210 2210
vector 151 Large_network.gateway1.tsn[0].phy[0].shaper.transmissionGate[1] state:vector ETV
attr "" ""
attr interpolationmode sample-hold
attr recordingmode vector
attr source NF_QBV_STATE_CHANGED
attr title State
151	1150299 56043 1 842202 0 1.0446 2613 0 1 1306 1306
151	14112981 57968 842684 1686028 1.045 2.0794001 2587 0 1 1294 1294
151	27562120 59312 1686429 2531811 2.08 3.1158001 2591 0 1 1295 1295
151	40992747 49109 2532194 3252304 3.1162001 4 2210 0 1 1105 1105
vector 152 Large_network.gateway2.tsn[0].phy[0].shaper.transmissionGate[7] state:vector ETV
attr "" ""
attr interpolationmode sample-hold
attr recordingmode vector
attr source NF_QBV_STATE_CHANGED
attr title State
152	1206342 112057 3 842203 0 1.0446 5224 0 1 2612 2612
152	14170949 115987 842484 1686199 1.0448 2.0798001 5176 0 1 2588 2588
152	27621432 118571 1686430 2531812 2.08 3.1158001 5180 0 1 2590 2590
152	41041856 98239 2532103 3252308 3.1160001 4 4421 0 1 2210 2210
[...]
502	40008255 2808 1687906 2527940 2.08174898 3.11174898 104 70 70 7280 509600
502	51544171 2376 2536048 3245644 3.12174236 3.99174898 88 70 70 6160 431200
vector 503 Large_network.canNode15.bufferIn[1] txPk:vector(packetBytes) ETV
attr interpolationmode none
attr recordingmode vector(packetBytes)
attr source txPk
attr title "TX Packets, packetBytes"
503	12996459 2491 64978 839730 0.09174898 1.04174898 96 70 70 6720 470400
503	26431693 2762 847888 1679756 1.05174898 2.07174898 103 70 70 7210 504700
503	40011063 2808 1687906 2527940 2.08174898 3.11174898 104 70 70 7280 509600
503	51546547 2376 2536048 3245644 3.12174236 3.99174898 88 70 70 6160 431200
vector 504 Large_network.canNode15.sinkApp[1] rxDFLatency:vector ETV
attr interpolationmode linear
attr recordingmode vector
attr source timestampAge(rxDF)
attr title "End-to-end latency of data frames"
attr unit s
504	12998950 2779 64979 839731 0.09174898 1.04174898 96 7e-05 7e-05 0.00672 4.704e-07
504	26434455 3071 847889 1679757 1.05174898 2.07174898 103 7e-05 7e-05 0.00721 5.047e-07
504	40013871 3120 1687907 2527941 2.08174898 3.11174898 104 7e-05 7e-05 0.00728 5.096e-07
504	51548923 2640 2536049 3245645 3.12174236 3.99174898 88 7e-05 7e-05 0.00616 4.312e-07
vector 505 Large_network.canNode15.sinkApp[1] rxDFPayloadLatency:vector ETV
attr interpolationmode linear
attr recordingmode vector
attr source timestampAge(rxDFPayload)
attr title "End-to-end latency of data frame payload"
attr unit s
505	13001729 3259 64979 839731 0.09174898 1.04174898 96 0.09174226 0.09174908 8.80771622 0.80808192810295
505	26437526 3586 847889 1679757 1.05174898 2.07174898 103 0.09174226 0.09174908 9.44998636 0.86701206105189
505	40016991 3640 1687907 2527941 2.08174898 3.11174898 104 0.09174226 0.09174908 9.54166202 0.87541648279318
505	51551563 3080 2536049 3245645 3.12174236 3.99174898 88 0.09174226 0.09174908 8.0737975 0.74075234232192
vector 506 Large_network.canNode15.bufferIn[4] rxPk:vector(packetBytes) ETV
attr interpolationmode none
attr recordingmode vector(packetBytes)
attr source rxPk
attr title "RX Packets, packetBytes"
506	13004988 2491 65997 840791 0.09306726 1.04306726 96 70 70 6720 470400
506	26441112 2762 848941 1680809 1.05306726 2.07306726 103 70 70 7210 504700
506	40020631 2808 1688975 2529001 2.08306726 3.11306726 104 70 70 7280 509600
506	51554643 2376 2537143 3246697 3.12306726 3.99306726 88 70 70 6160 431200
vector 507 Large_network.canNode15.bufferIn[4] txPk:vector(packetBytes) ETV
attr interpolationmode none
attr recordingmode vector(packetBytes)
attr source txPk
attr title "TX Packets, packetBytes"
507	13007479 2491 65997 840791 0.09306726 1.04306726 96 70 70 6720 470400
507	26443874 2762 848941 1680809 1.05306726 2.07306726 103 70 70 7210 504700
507	40023439 2808 1688975 2529001 2.08306726 3.11306726 104 70 70 7280 509600
507	51557019 2376 2537143 3246697 3.12306726 3.99306726 88 70 70 6160 431200
vector 508 Large_network.canNode15.sinkApp[4] rxDFLatency:vector ETV
attr interpolationmode linear
attr recordingmode vector
attr source timestampAge(rxDF)
attr title "End-to-end latency of data frames"
attr unit s
508	13009970 2779 65998 840792 0.09306726 1.04306726 96 7e-05 7e-05 0.00672 4.704e-07
508	26446636 3071 848942 1680810 1.05306726 2.07306726 103 7e-05 7e-05 0.00721 5.047e-07
508	40026247 3120 1688976 2529002 2.08306726 3.11306726 104 7e-05 7e-05 0.00728 5.096e-07
508	51559395 2640 2537144 3246698 3.12306726 3.99306726 88 7e-05 7e-05 0.00616 4.312e-07
vector 509 Large_network.canNode15.sinkApp[4] rxDFPayloadLatency:vector ETV
attr interpolationmode linear
attr recordingmode vector
attr source timestampAge(rxDFPayload)
attr title "End-to-end latency of data frame payload"
attr unit s
509	13012749 3259 65998 840792 0.09306726 1.04306726 96 0.09306726 0.09306726 8.93445696 0.83150542885513
509	26449707 3586 848942 1680810 1.05306726 2.07306726 103 0.09306726 0.09306726 9.58592778 0.89213603304248
509	40029367 3640 1688976 2529002 2.08306726 3.11306726 104 0.09306726 0.09306726 9.67899504 0.90079754792639
509	51562035 3080 2537144 3246698 3.12306726 3.99306726 88 0.09306726 0.09306726 8.18991888 0.76221330978387
vector 510 Large_network.canNode15.bufferIn[7] rxPk:vector(packetBytes) ETV
attr interpolationmode none
attr recordingmode vector(packetBytes)
attr source rxPk
attr title "RX Packets, packetBytes"
510	13016008 2492 67396 842190 0.09459908 1.04459898 96 70 70 6720 470400
510	26453293 2762 850348 1682216 1.05459898 2.07459898 103 70 70 7210 504700
510	40033007 2808 1690382 2530400 2.08459898 3.11459898 104 70 70 7280 509600
510	51565115 2376 2538562 3248096 3.12459236 3.99459908 88 70 70 6160 431200
vector 511 Large_network.canNode15.bufferIn[7] txPk:vector(packetBytes) ETV
attr interpolationmode none
attr recordingmode vector(packetBytes)
attr source txPk
attr title "TX Packets, packetBytes"
511	13018500 2492 67396 842190 0.09459908 1.04459898 96 70 70 6720 470400
511	26456055 2762 850348 1682216 1.05459898 2.07459898 103 70 70 7210 504700
511	40035815 2808 1690382 2530400 2.08459898 3.11459898 104 70 70 7280 509600
511	51567491 2376 2538562 3248096 3.12459236 3.99459908 88 70 70 6160 431200
vector 512 Large_network.canNode15.sinkApp[7] rxDFLatency:vector ETV
attr interpolationmode linear
attr recordingmode vector
attr source timestampAge(rxDF)
attr title "End-to-end latency of data frames"
attr unit s
512	13020992 2780 67397 842191 0.09459908 1.04459898 96 7e-05 7e-05 0.00672 4.704e-07
512	26458817 3071 850349 1682217 1.05459898 2.07459898 103 7e-05 7e-05 0.00721 5.047e-07
512	40038623 3120 1690383 2530401 2.08459898 3.11459898 104 7e-05 7e-05 0.00728 5.096e-07
512	51569867 2640 2538563 3248097 3.12459236 3.99459908 88 7e-05 7e-05 0.00616 4.312e-07
vector 513 Large_network.canNode15.sinkApp[7] rxDFPayloadLatency:vector ETV
attr interpolationmode linear
attr recordingmode vector
attr source timestampAge(rxDFPayload)
attr title "End-to-end latency of data frame payload"
attr unit s
513	13023772 3260 67397 842191 0.09459908 1.04459898 96 0.09459226 0.09459908 9.08133658 0.85906952249061
513	26461888 3586 850349 1682217 1.05459898 2.07459898 103 0.09459226 0.09459908 9.74356294 0.92171862951038
513	40041743 3640 1690383 2530401 2.08459898 3.11459898 104 0.09459226 0.09459908 9.83806874 0.93064996767231
513	51572507 3080 2538563 3248097 3.12459236 3.99459908 88 0.09459226 0.09459908 8.32460422 0.78748903943705
vector 514 Large_network.canNode16.bufferIn[2] rxPk:vector(packetBytes) ETV
attr interpolationmode none
attr recordingmode vector(packetBytes)
attr source rxPk
attr title "RX Packets, packetBytes"
514	13027032 2466 69260 835864 0.09621736 1.03621726 95 70 70 6650 465500
514	26465474 2788 844022 1684056 1.04621726 2.07621726 104 70 70 7280 509600
514	40045383 2781 1692222 2524060 2.08621726 3.10620359 103 70 70 7210 504700
514	51575587 2403 2532256 3249928 3.11621726 3.99621736 89 70 70 6230 436100
vector 515 Large_network.canNode16.bufferIn[2] txPk:vector(packetBytes) ETV
attr interpolationmode none
attr recordingmode vector(packetBytes)
attr source txPk
attr title "TX Packets, packetBytes"
515	13029498 2466 69260 835864 0.09621736 1.03621726 95 70 70 6650 465500
515	26468262 2788 844022 1684056 1.04621726 2.07621726 104 70 70 7280 509600
515	40048164 2781 1692222 2524060 2.08621726 3.10620359 103 70 70 7210 504700
515	51577990 2403 2532256 3249928 3.11621726 3.99621736 89 70 70 6230 436100
vector 516 Large_network.canNode16.sinkApp[2] rxDFLatency:vector ETV
attr interpolationmode linear
attr recordingmode vector
attr source timestampAge(rxDF)
attr title "End-to-end latency of data frames"
attr unit s
516	13031964 2751 69261 835865 0.09621736 1.03621726 95 7e-05 7e-05 0.00665 4.655e-07
516	26471050 3100 844023 1684057 1.04621726 2.07621726 104 7e-05 7e-05 0.00728 5.096e-07
516	40050945 3090 1692223 2524061 2.08621726 3.10620359 103 7e-05 7e-05 0.00721 5.047e-07
516	51580393 2670 2532257 3249929 3.11621726 3.99621736 89 7e-05 7e-05 0.00623 4.361e-07
vector 517 Large_network.canNode16.sinkApp[2] rxDFPayloadLatency:vector ETV
attr interpolationmode linear
attr recordingmode vector
attr source timestampAge(rxDFPayload)
attr title "End-to-end latency of data frame payload"
attr unit s
517	13034715 3226 69261 835865 0.09621736 1.03621726 95 0.09620349 0.09621736 9.14029795 0.8794215467998
517	26474150 3620 844023 1684057 1.04621726 2.07621726 104 0.09620349 0.09621736 10.00632204 0.96275462581113
517	40054035 3605 1692223 2524061 2.08621726 3.10620359 103 0.09620349 0.09621736 9.9099129 0.95345994296413
517	51583063 3115 2532257 3249929 3.11621726 3.99621736 89 0.09620349 0.09621736 8.56311732 0.82389863432626
vector 518 Large_network.canNode16.bufferIn[5] rxPk:vector(packetBytes) ETV
attr interpolationmode none
attr recordingmode vector(packetBytes)
attr source rxPk
attr title "RX Packets, packetBytes"
518	13037941 2466 70269 836905 0.09744898 1.03744898 95 70 70 6650 465500
518	26477770 2789 845055 1685097 1.04744898 2.07744908 104 70 70 7280 509600
518	40057640 2781 1693271 2525123 2.08744908 3.10744236 103 70 70 7210 504700
518	51586178 2403 2533265 3250961 3.11744898 3.99744898 89 70 70 6230 436100
vector 519 Large_network.canNode16.bufferIn[5] txPk:vector(packetBytes) ETV
attr interpolationmode none
attr recordingmode vector(packetBytes)
attr source txPk
attr title "TX Packets, packetBytes"
519	13040407 2466 70269 836905 0.09744898 1.03744898 95 70 70 6650 465500
519	26480559 2789 845055 1685097 1.04744898 2.07744908 104 70 70 7280 509600
519	40060421 2781 1693271 2525123 2.08744908 3.10744236 103 70 70 7210 504700
519	51588581 2403 2533265 3250961 3.11744898 3.99744898 89 70 70 6230 436100
vector 520 Large_network.canNode16.sinkApp[5] rxDFLatency:vector ETV
attr interpolationmode linear
attr recordingmode vector
attr source timestampAge(rxDF)
attr title "End-to-end latency of data frames"
attr unit s
520	13042873 2751 70271 836907 0.09744898 1.03744898 95 7e-05 7e-05 0.00665 4.655e-07
520	26483348 3101 845057 1685099 1.04744898 2.07744908 104 7e-05 7e-05 0.00728 5.096e-07
520	40063202 3090 1693273 2525125 2.08744908 3.10744236 103 7e-05 7e-05 0.00721 5.047e-07
520	51590984 2670 2533267 3250963 3.11744898 3.99744898 89 7e-05 7e-05 0.00623 4.361e-07
vector 521 Large_network.canNode16.sinkApp[5] rxDFPayloadLatency:vector ETV
attr interpolationmode linear
attr recordingmode vector
attr source timestampAge(rxDFPayload)
attr title "End-to-end latency of data frame payload"
attr unit s
521	13045624 3226 70271 836907 0.09744898 1.03744898 95 0.09744226 0.09744908 9.25750124 0.90211925561548
521	26486449 3621 845057 1685099 1.04744898 2.07744908 104 0.09744226 0.09744908 10.13451458 0.98758063331404
521	40066292 3605 1693273 2525125 2.08744908 3.10744236 103 0.09744226 0.09744908 10.03700662 0.97807283491573
521	51593654 3115 2533267 3250963 3.11744898 3.99744898 89 0.09744226 0.09744908 8.67284658 0.84514907701476
vector 522 Large_network.canNode17.bufferIn[0] rxPk:vector(packetBytes) ETV
attr interpolationmode none
attr recordingmode vector(packetBytes)
attr source rxPk
attr title "RX Packets, packetBytes"
522	13048850 2466 71086 837722 0.09906726 1.03906726 95 70 70 6650 465500
522	26490070 2789 845880 1685914 1.04906726 2.07906736 104 70 70 7280 509600
522	40069897 2781 1694080 2525940 2.08906736 3.10905359 103 70 70 7210 504700
522	51596769 2403 2534090 3251786 3.11906726 3.99906726 89 70 70 6230 436100
vector 523 Large_network.canNode17.bufferIn[0] txPk:vector(packetBytes) ETV
attr interpolationmode none
attr recordingmode vector(packetBytes)
attr source txPk
attr title "TX Packets, packetBytes"
523	13051316 2466 71086 837722 0.09906726 1.03906726 95 70 70 6650 465500
523	26492859 2789 845880 1685914 1.04906726 2.07906736 104 70 70 7280 509600
523	40072678 2781 1694080 2525940 2.08906736 3.10905359 103 70 70 7210 504700
523	51599172 2403 2534090 3251786 3.11906726 3.99906726 89 70 70 6230 436100
vector 524 Large_network.canNode17.sinkApp[0] rxDFLatency:vector ETV
attr interpolationmode linear
attr recordingmode vector
attr source timestampAge(rxDF)
attr title "End-to-end latency of data frames"
attr unit s
524	13053782 2751 71087 837723 0.09906726 1.03906726 95 7e-05 7e-05 0.00665 4.655e-07
524	26495648 3101 845881 1685915 1.04906726 2.07906736 104 7e-05 7e-05 0.00728 5.096e-07
524	40075459 3090 1694081 2525941 2.08906736 3.10905359 103 7e-05 7e-05 0.00721 5.047e-07
524	51601575 2670 2534091 3251787 3.11906726 3.99906726 89 7e-05 7e-05 0.00623 4.361e-07
vector 525 Large_network.canNode17.sinkApp[0] rxDFPayloadLatency:vector ETV
attr interpolationmode linear
attr recordingmode vector
attr source timestampAge(rxDFPayload)
attr title "End-to-end latency of data frame payload"
attr unit s
525	13056533 3226 71087 837723 0.09906726 1.03906726 95 0.09905349 0.09906736 9.41107569 0.93229837849544
525	26498749 3621 845881 1685915 1.04906726 2.07906736 104 0.09905349 0.09906736 10.30262535 1.0206162451314
525	40078549 3605 1694081 2525941 2.08906736 3.10905359 103 0.09905349 0.09906736 10.20343566 1.0107776671836
525	51604245 3115 2534091 3251787 3.11906726 3.99906726 89 0.09905349 0.09906736 8.81675365 0.873428597241
vector 526 Large_network.canNode17.bufferIn[3] rxPk:vector(packetBytes) ETV
attr interpolationmode none
attr recordingmode vector(packetBytes)
attr source rxPk
attr title "RX Packets, packetBytes"
526	13059759 2397 71886 838526 0.10029898 1.0403057 95 70 70 6650 465500
526	26502370 2689 846684 1678552 1.0503057 2.0703057 103 70 70 7210 504700
526	40082154 2737 1686710 2526748 2.0803057 3.11029908 104 70 70 7280 509600
526	51607360 2301 2534894 3244440 3.1203057 3.9903057 88 70 70 6160 431200
vector 527 Large_network.canNode17.bufferIn[3] txPk:vector(packetBytes) ETV
attr interpolationmode none
attr recordingmode vector(packetBytes)
attr source txPk
attr title "TX Packets, packetBytes"
527	13062156 2397 71886 838526 0.10029898 1.0403057 95 70 70 6650 465500
527	26505059 2689 846684 1678552 1.0503057 2.0703057 103 70 70 7210 504700
527	40084891 2737 1686710 2526748 2.0803057 3.11029908 104 70 70 7280 509600
527	51609661 2301 2534894 3244440 3.1203057 3.9903057 88 70 70 6160 431200
vector 528 Large_network.canNode17.sinkApp[3] rxDFLatency:vector ETV
attr interpolationmode linear
attr recordingmode vector
attr source timestampAge(rxDF)
attr title "End-to-end latency of data frames"
attr unit s
528	13064553 2682 71888 838528 0.10029898 1.0403057 95 7e-05 7e-05 0.00665 4.655e-07
528	26507748 2998 846686 1678554 1.0503057 2.0703057 103 7e-05 7e-05 0.00721 5.047e-07
528	40087628 3049 1686712 2526750 2.0803057 3.11029908 104 7e-05 7e-05 0.00728 5.096e-07
528	51611962 2565 2534896 3244442 3.1203057 3.9903057 88 7e-05 7e-05 0.00616 4.312e-07
vector 529 Large_network.canNode17.sinkApp[3] rxDFPayloadLatency:vector ETV
attr interpolationmode linear
attr recordingmode vector
attr source timestampAge(rxDFPayload)
attr title "End-to-end latency of data frame payload"
attr unit s
529	13067235 3088 71888 838528 0.10029898 1.0403057 95 0.10029898 0.1003058 9.52886888 0.95578254961698
529	26510746 3440 846686 1678554 1.0503057 2.0703057 103 0.10029898 0.1003058 10.3312881 1.0362671252647
529	40090677 3498 1686712 2526750 2.0803057 3.11029908 104 0.10029898 0.1003058 10.43157474 1.0463245351887
529	51614527 2930 2534896 3244442 3.1203057 3.9903057 88 0.10029898 0.1003058 8.82681584 0.88537133996058
vector 530 Large_network.canNode17.bufferIn[6] rxPk:vector(packetBytes) ETV
attr interpolationmode none
attr recordingmode vector(packetBytes)
attr source rxPk
attr title "RX Packets, packetBytes"
530	13070323 2466 73223 839867 0.10190349 1.04191726 95 70 70 6650 465500
530	26514186 2762 848017 1679885 1.05191726 2.07191726 103 70 70 7210 504700
530	40094175 2808 1688043 2528077 2.08191726 3.11190359 104 70 70 7280 509600
530	51617457 2376 2536211 3245773 3.12191726 3.99191726 88 70 70 6160 431200
vector 531 Large_network.canNode17.bufferIn[6] txPk:vector(packetBytes) ETV
attr interpolationmode none
attr recordingmode vector(packetBytes)
attr source txPk
attr title "TX Packets, packetBytes"
531	13072789 2466 73223 839867 0.10190349 1.04191726 95 70 70 6650 465500
531	26516948 2762 848017 1679885 1.05191726 2.07191726 103 70 70 7210 504700
531	40096983 2808 1688043 2528077 2.08191726 3.11190359 104 70 70 7280 509600
531	51619833 2376 2536211 3245773 3.12191726 3.99191726 88 70 70 6160 431200
vector 532 Large_network.canNode17.sinkApp[6] rxDFLatency:vector ETV
attr interpolationmode linear
attr recordingmode vector
attr source timestampAge(rxDF)
attr title "End-to-end latency of data frames"
attr unit s
532	13075255 2751 73224 839868 0.10190349 1.04191726 95 7e-05 7e-05 0.00665 4.655e-07
532	26519710 3071 848018 1679886 1.05191726 2.07191726 103 7e-05 7e-05 0.00721 5.047e-07
532	40099791 3120 1688044 2528078 2.08191726 3.11190359 104 7e-05 7e-05 0.00728 5.096e-07
532	51622209 2640 2536212 3245774 3.12191726 3.99191726 88 7e-05 7e-05 0.00616 4.312e-07
vector 533 Large_network.canNode17.sinkApp[6] rxDFPayloadLatency:vector ETV
attr interpolationmode linear
attr recordingmode vector
attr source timestampAge(rxDFPayload)
attr title "End-to-end latency of data frame payload"
attr unit s
533	13078006 3226 73224 839868 0.10190349 1.04191726 95 0.10190349 0.10191736 9.68178378 0.98670460530075
533	26522781 3586 848018 1679886 1.05191726 2.07191726 103 0.10190349 0.10191736 10.49706728 1.0697905038088
533	40102911 5162 1688044 2528078 2.08191726 3.11190359 104 0.10190349 0.10191736 10.59894433 1.0801694360556
533	51624849 3080 2536212 3245774 3.12191726 3.99191726 88 0.10190349 0.10191736 8.96854147 0.91403109411802
vector 534 Large_network.gateway1.tsn[0].scheduler.oscillator currentDrift:vector ETV
attr recordingmode vector
attr title "Current drift"
attr unit s
534	51627929 22 3252302 3252302 4 4 1 -4e-12 -4e-12 -4e-12 1.6e-23
vector 535 Large_network.gateway1.tsn[0].scheduler.timer clockCorrection:vector ETV
attr recordingmode vector
attr title "Clock correction"
attr unit tick
535	51627951 17 3252303 3252303 4 4 1 0 0 0 0
vector 536 Large_network.gateway2.tsn[0].scheduler.oscillator currentDrift:vector ETV
attr recordingmode vector
attr title "Current drift"
attr unit s
536	51627968 22 3252306 3252306 4 4 1 -2e-12 -2e-12 -2e-12 4e-24
vector 537 Large_network.gateway2.tsn[0].scheduler.timer clockCorrection:vector ETV
attr recordingmode vector
attr title "Clock correction"
attr unit tick
537	51627990 18 3252307 3252307 4 4 1 -2 -2 -2 4
vector 538 Large_network.switch1.scheduler.oscillator currentDrift:vector ETV
attr recordingmode vector
attr title "Current drift"
attr unit s
538	51628008 22 3252310 3252310 4 4 1 -3e-12 -3e-12 -3e-12 9e-24
vector 539 Large_network.switch1.scheduler.timer clockCorrection:vector ETV
attr recordingmode vector
attr title "Clock correction"
attr unit tick
539	51628030 17 3252311 3252311 4 4 1 0 0 0 0
vector 540 Large_network.switch2.scheduler.oscillator currentDrift:vector ETV
attr recordingmode vector
attr title "Current drift"
attr unit s
540	51628047 21 3252315 3252315 4 4 1 1e-12 1e-12 1e-12 1e-24
vector 541 Large_network.switch2.scheduler.timer clockCorrection:vector ETV
attr recordingmode vector
attr title "Clock correction"
attr unit tick
541	51628068 17 3252316 3252316 4 4 1 2 2 2 4
vector 542 Large_network.switch3.scheduler.oscillator currentDrift:vector ETV
attr recordingmode vector
attr title "Current drift"
attr unit s
542	51628085 21 3252320 3252320 4 4 1 5e-12 5e-12 5e-12 2.5e-23
vector 543 Large_network.switch3.scheduler.timer clockCorrection:vector ETV
attr recordingmode vector
attr title "Clock correction"
attr unit tick
543	51628106 20 3252321 3252321 4 4 1 -1 -1 -1 1
